* Extracted by KLayout with GF180 LVS runset on : 17/08/2025 21:25

.SUBCKT top_io PAD DVSS|VMINUS|VSS DVDD|VDD|VPLUS VSS DVDD DVSS
+ NDRIVE_X|ndrive_x_<1> NDRIVE_Y|ndrive_Y_<1> NDRIVE_X|ndrive_x_<2>
+ NDRIVE_Y|ndrive_y_<2> NDRIVE_X|ndrive_x_<3> NDRIVE_Y|ndrive_Y_<3>
+ NDRIVE_X|ndrive_x_<0> DVDD|VPLUS DVSS|VMINUS PDRIVE_X|pdrive_x_<0>
+ PDRIVE_Y|pdrive_y_<1> PDRIVE_X|pdrive_x_<1> PDRIVE_X|pdrive_x_<2>
+ PDRIVE_Y|pdrive_y_<2> PDRIVE_Y|pdrive_y_<3> PDRIVE_X|pdrive_x_<3>
+ NDRIVE_Y|ndrive_y_<0> PDRIVE_Y|pdrive_y_<0> SL|Z ENB EN A|AB SLB|ZB A|OE|PDRV
+ VRC PDRV|VDD A|IP_IN|PAD A|PDB_OUT|Z A|PUB_OUT|Z B|PD|PD_IN A|PU A|B|Z PU_B|Z
+ PD|ZB A|Z Y Z CS|Z IE|Z A|CS|IE ZB A|CS|OE|PDRV A|IE ASIG5V NDRIVE_X NDRIVE_Y
+ PDRIVE_X PDRIVE_Y PDRV|PDRV0 OE PDRV|PDRV1 A|SL A PDRV A|CS vss
M$1 DVDD \$114 NDRIVE_Y|ndrive_y_<0> DVDD pfet_06v0 L=0.7U W=24U AS=8.4P
+ AD=6.24P PS=37.4U PD=25.04U
M$3 NDRIVE_X|ndrive_x_<0> SL|Z NDRIVE_Y|ndrive_y_<0> DVDD pfet_06v0 L=0.7U
+ W=72U AS=18.72P AD=25.2P PS=75.12U PD=112.2U
M$5 \$114 ENB \$113 DVDD pfet_06v0 L=0.7U W=12U AS=5.28P AD=3.12P PS=24.88U
+ PD=12.52U
M$6 DVDD EN \$114 DVDD pfet_06v0 L=0.7U W=12U AS=3.12P AD=3.12P PS=12.52U
+ PD=12.52U
M$7 \$114 A|AB DVDD DVDD pfet_06v0 L=0.7U W=12U AS=3.12P AD=5.28P PS=12.52U
+ PD=24.88U
M$8 PDRIVE_Y|pdrive_y_<0> \$113 DVDD DVDD pfet_06v0 L=0.7U W=24U AS=8.4P
+ AD=6.24P PS=37.4U PD=25.04U
M$10 PDRIVE_X|pdrive_x_<0> \$113 DVDD DVDD pfet_06v0 L=0.7U W=24U AS=6.24P
+ AD=8.4P PS=25.04U PD=37.4U
M$12 PDRIVE_X|pdrive_x_<1> \$120 DVDD DVDD pfet_06v0 L=0.7U W=24U AS=8.4P
+ AD=6.24P PS=37.4U PD=25.04U
M$14 PDRIVE_Y|pdrive_y_<1> \$120 DVDD DVDD pfet_06v0 L=0.7U W=24U AS=6.24P
+ AD=8.4P PS=25.04U PD=37.4U
M$16 DVDD A|AB \$119 DVDD pfet_06v0 L=0.7U W=12U AS=5.28P AD=3.12P PS=24.88U
+ PD=12.52U
M$17 \$119 EN DVDD DVDD pfet_06v0 L=0.7U W=12U AS=3.12P AD=3.12P PS=12.52U
+ PD=12.52U
M$18 \$120 ENB \$119 DVDD pfet_06v0 L=0.7U W=12U AS=3.12P AD=5.28P PS=12.52U
+ PD=24.88U
M$19 NDRIVE_X|ndrive_x_<1> SL|Z NDRIVE_Y|ndrive_Y_<1> DVDD pfet_06v0 L=0.7U
+ W=72U AS=25.2P AD=18.72P PS=112.2U PD=75.12U
M$21 DVDD \$119 NDRIVE_Y|ndrive_Y_<1> DVDD pfet_06v0 L=0.7U W=24U AS=6.24P
+ AD=8.4P PS=25.04U PD=37.4U
M$23 DVDD \$125 NDRIVE_Y|ndrive_y_<2> DVDD pfet_06v0 L=0.7U W=24U AS=8.4P
+ AD=6.24P PS=37.4U PD=25.04U
M$25 NDRIVE_X|ndrive_x_<2> SL|Z NDRIVE_Y|ndrive_y_<2> DVDD pfet_06v0 L=0.7U
+ W=72U AS=18.72P AD=25.2P PS=75.12U PD=112.2U
M$27 \$125 ENB \$124 DVDD pfet_06v0 L=0.7U W=12U AS=5.28P AD=3.12P PS=24.88U
+ PD=12.52U
M$28 DVDD EN \$125 DVDD pfet_06v0 L=0.7U W=12U AS=3.12P AD=3.12P PS=12.52U
+ PD=12.52U
M$29 \$125 A|AB DVDD DVDD pfet_06v0 L=0.7U W=12U AS=3.12P AD=5.28P PS=12.52U
+ PD=24.88U
M$30 PDRIVE_Y|pdrive_y_<2> \$124 DVDD DVDD pfet_06v0 L=0.7U W=24U AS=8.4P
+ AD=6.24P PS=37.4U PD=25.04U
M$32 PDRIVE_X|pdrive_x_<2> \$124 DVDD DVDD pfet_06v0 L=0.7U W=24U AS=6.24P
+ AD=8.4P PS=25.04U PD=37.4U
M$34 PDRIVE_X|pdrive_x_<3> \$130 DVDD DVDD pfet_06v0 L=0.7U W=24U AS=8.4P
+ AD=6.24P PS=37.4U PD=25.04U
M$36 PDRIVE_Y|pdrive_y_<3> \$130 DVDD DVDD pfet_06v0 L=0.7U W=24U AS=6.24P
+ AD=8.4P PS=25.04U PD=37.4U
M$38 DVDD A|AB \$129 DVDD pfet_06v0 L=0.7U W=12U AS=5.28P AD=3.12P PS=24.88U
+ PD=12.52U
M$39 \$129 EN DVDD DVDD pfet_06v0 L=0.7U W=12U AS=3.12P AD=3.12P PS=12.52U
+ PD=12.52U
M$40 \$130 ENB \$129 DVDD pfet_06v0 L=0.7U W=12U AS=3.12P AD=5.28P PS=12.52U
+ PD=24.88U
M$41 NDRIVE_X|ndrive_x_<3> SL|Z NDRIVE_Y|ndrive_Y_<3> DVDD pfet_06v0 L=0.7U
+ W=72U AS=25.2P AD=18.72P PS=112.2U PD=75.12U
M$43 DVDD \$129 NDRIVE_Y|ndrive_Y_<3> DVDD pfet_06v0 L=0.7U W=24U AS=6.24P
+ AD=8.4P PS=25.04U PD=37.4U
M$45 DVDD \$138 NDRIVE_Y|ndrive_y_<0> DVDD pfet_06v0 L=0.7U W=24U AS=8.4P
+ AD=6.24P PS=37.4U PD=25.04U
M$49 \$138 ENB \$137 DVDD pfet_06v0 L=0.7U W=12U AS=5.28P AD=3.12P PS=24.88U
+ PD=12.52U
M$50 DVDD EN \$138 DVDD pfet_06v0 L=0.7U W=12U AS=3.12P AD=3.12P PS=12.52U
+ PD=12.52U
M$51 \$138 A|AB DVDD DVDD pfet_06v0 L=0.7U W=12U AS=3.12P AD=5.28P PS=12.52U
+ PD=24.88U
M$52 PDRIVE_Y|pdrive_y_<0> \$137 DVDD DVDD pfet_06v0 L=0.7U W=24U AS=8.4P
+ AD=6.24P PS=37.4U PD=25.04U
M$54 PDRIVE_X|pdrive_x_<0> \$137 DVDD DVDD pfet_06v0 L=0.7U W=24U AS=6.24P
+ AD=8.4P PS=25.04U PD=37.4U
M$56 PDRIVE_X|pdrive_x_<1> \$144 DVDD DVDD pfet_06v0 L=0.7U W=24U AS=8.4P
+ AD=6.24P PS=37.4U PD=25.04U
M$58 PDRIVE_Y|pdrive_y_<1> \$144 DVDD DVDD pfet_06v0 L=0.7U W=24U AS=6.24P
+ AD=8.4P PS=25.04U PD=37.4U
M$60 DVDD A|AB \$143 DVDD pfet_06v0 L=0.7U W=12U AS=5.28P AD=3.12P PS=24.88U
+ PD=12.52U
M$61 \$143 EN DVDD DVDD pfet_06v0 L=0.7U W=12U AS=3.12P AD=3.12P PS=12.52U
+ PD=12.52U
M$62 \$144 ENB \$143 DVDD pfet_06v0 L=0.7U W=12U AS=3.12P AD=5.28P PS=12.52U
+ PD=24.88U
M$65 DVDD \$143 NDRIVE_Y|ndrive_Y_<1> DVDD pfet_06v0 L=0.7U W=24U AS=6.24P
+ AD=8.4P PS=25.04U PD=37.4U
M$67 DVDD \$149 NDRIVE_Y|ndrive_y_<2> DVDD pfet_06v0 L=0.7U W=24U AS=8.4P
+ AD=6.24P PS=37.4U PD=25.04U
M$71 \$149 ENB \$148 DVDD pfet_06v0 L=0.7U W=12U AS=5.28P AD=3.12P PS=24.88U
+ PD=12.52U
M$72 DVDD EN \$149 DVDD pfet_06v0 L=0.7U W=12U AS=3.12P AD=3.12P PS=12.52U
+ PD=12.52U
M$73 \$149 A|AB DVDD DVDD pfet_06v0 L=0.7U W=12U AS=3.12P AD=5.28P PS=12.52U
+ PD=24.88U
M$74 PDRIVE_Y|pdrive_y_<2> \$148 DVDD DVDD pfet_06v0 L=0.7U W=24U AS=8.4P
+ AD=6.24P PS=37.4U PD=25.04U
M$76 PDRIVE_X|pdrive_x_<2> \$148 DVDD DVDD pfet_06v0 L=0.7U W=24U AS=6.24P
+ AD=8.4P PS=25.04U PD=37.4U
M$78 PDRIVE_X|pdrive_x_<3> \$154 DVDD DVDD pfet_06v0 L=0.7U W=24U AS=8.4P
+ AD=6.24P PS=37.4U PD=25.04U
M$80 PDRIVE_Y|pdrive_y_<3> \$154 DVDD DVDD pfet_06v0 L=0.7U W=24U AS=6.24P
+ AD=8.4P PS=25.04U PD=37.4U
M$82 DVDD A|AB \$153 DVDD pfet_06v0 L=0.7U W=12U AS=5.28P AD=3.12P PS=24.88U
+ PD=12.52U
M$83 \$153 EN DVDD DVDD pfet_06v0 L=0.7U W=12U AS=3.12P AD=3.12P PS=12.52U
+ PD=12.52U
M$84 \$154 ENB \$153 DVDD pfet_06v0 L=0.7U W=12U AS=3.12P AD=5.28P PS=12.52U
+ PD=24.88U
M$87 DVDD \$153 NDRIVE_Y|ndrive_Y_<3> DVDD pfet_06v0 L=0.7U W=24U AS=6.24P
+ AD=8.4P PS=25.04U PD=37.4U
M$89 \$241 VRC DVDD|VDD|VPLUS DVDD|VDD|VPLUS pfet_06v0 L=0.7U W=20U AS=6.1P
+ AD=5.2P PS=27.44U PD=22.08U
M$93 \$243 \$241 DVDD|VDD|VPLUS DVDD|VDD|VPLUS pfet_06v0 L=0.7U W=15U AS=3.9P
+ AD=4.8P PS=16.56U PD=21.92U
M$96 \$62 \$243 DVDD|VDD|VPLUS DVDD|VDD|VPLUS pfet_06v0 L=0.7U W=120U AS=32.1P
+ AD=32.1P PS=137.84U PD=137.84U
M$120 \$220 VRC DVDD|VPLUS DVDD|VPLUS pfet_06v0 L=0.7U W=20U AS=6.1P AD=5.2P
+ PS=27.44U PD=22.08U
M$124 \$222 \$220 DVDD|VPLUS DVDD|VPLUS pfet_06v0 L=0.7U W=15U AS=3.9P AD=4.8P
+ PS=16.56U PD=21.92U
M$127 \$59 \$222 DVDD|VPLUS DVDD|VPLUS pfet_06v0 L=0.7U W=120U AS=32.1P
+ AD=32.1P PS=137.84U PD=137.84U
M$151 NDRIVE_Y|ndrive_y_<0> DVSS NDRIVE_X|ndrive_x_<0> DVDD pfet_06v0 L=0.7U
+ W=3.6U AS=1.584P AD=1.584P PS=9.84U PD=9.84U
M$152 NDRIVE_X|ndrive_x_<1> DVSS NDRIVE_Y|ndrive_Y_<1> DVDD pfet_06v0 L=0.7U
+ W=3.6U AS=1.584P AD=1.584P PS=9.84U PD=9.84U
M$153 NDRIVE_Y|ndrive_y_<2> DVSS NDRIVE_X|ndrive_x_<2> DVDD pfet_06v0 L=0.7U
+ W=3.6U AS=1.584P AD=1.584P PS=9.84U PD=9.84U
M$154 NDRIVE_X|ndrive_x_<3> DVSS NDRIVE_Y|ndrive_Y_<3> DVDD pfet_06v0 L=0.7U
+ W=3.6U AS=1.584P AD=1.584P PS=9.84U PD=9.84U
M$155 \$258 A|OE|PDRV PDRV|VDD PDRV|VDD pfet_06v0 L=0.7U W=6U AS=2.1P AD=2.1P
+ PS=10.4U PD=10.4U
M$158 DVDD \$258 EN DVDD pfet_06v0 L=0.7U W=6U AS=2.64P AD=1.56P PS=12.88U
+ PD=6.52U
M$159 ENB EN DVDD DVDD pfet_06v0 L=0.7U W=72U AS=23.04P AD=27.36P PS=103.68U
+ PD=129.12U
M$161 EN \$262 DVDD DVDD pfet_06v0 L=0.7U W=6U AS=1.56P AD=2.64P PS=6.52U
+ PD=12.88U
M$162 \$262 A|OE|PDRV PDRV|VDD PDRV|VDD pfet_06v0 L=0.7U W=6U AS=2.1P AD=2.1P
+ PS=10.4U PD=10.4U
M$164 \$266 PDRV|VDD PDRV|VDD PDRV|VDD pfet_06v0 L=0.7U W=3U AS=1.32P AD=0.78P
+ PS=6.88U PD=3.52U
M$165 PDRV|VDD A|OE|PDRV \$266 PDRV|VDD pfet_06v0 L=0.7U W=3U AS=0.78P AD=1.32P
+ PS=3.52U PD=6.88U
M$167 DVDD \$266 EN DVDD pfet_06v0 L=0.7U W=6U AS=2.64P AD=1.56P PS=12.88U
+ PD=6.52U
M$170 DVDD \$269 A|AB DVDD pfet_06v0 L=0.7U W=6U AS=2.64P AD=1.56P PS=12.88U
+ PD=6.52U
M$171 \$269 \$271 DVDD DVDD pfet_06v0 L=0.7U W=6U AS=1.56P AD=2.64P PS=6.52U
+ PD=12.88U
M$172 \$271 A|OE|PDRV PDRV|VDD PDRV|VDD pfet_06v0 L=0.7U W=6U AS=2.1P AD=2.1P
+ PS=10.4U PD=10.4U
M$174 \$274 A|OE|PDRV PDRV|VDD PDRV|VDD pfet_06v0 L=0.7U W=3U AS=1.32P AD=1.32P
+ PS=6.88U PD=6.88U
M$175 SL|Z \$274 DVDD DVDD pfet_06v0 L=0.7U W=6U AS=2.1P AD=1.56P PS=10.4U
+ PD=7.04U
M$177 SLB|ZB SL|Z DVDD DVDD pfet_06v0 L=0.7U W=24U AS=6.24P AD=8.4P PS=28.16U
+ PD=41.6U
M$180 \$323 A|CS|OE|PDRV PDRV|VDD PDRV|VDD pfet_06v0 L=0.7U W=6U AS=2.1P
+ AD=2.1P PS=10.4U PD=10.4U
M$182 DVDD \$323 EN DVDD pfet_06v0 L=0.7U W=6U AS=2.64P AD=1.56P PS=12.88U
+ PD=6.52U
M$185 EN \$327 DVDD DVDD pfet_06v0 L=0.7U W=6U AS=1.56P AD=2.64P PS=6.52U
+ PD=12.88U
M$186 \$327 A|CS|OE|PDRV PDRV|VDD PDRV|VDD pfet_06v0 L=0.7U W=6U AS=2.1P
+ AD=2.1P PS=10.4U PD=10.4U
M$188 \$331 PDRV|VDD PDRV|VDD PDRV|VDD pfet_06v0 L=0.7U W=3U AS=1.32P AD=0.78P
+ PS=6.88U PD=3.52U
M$189 PDRV|VDD A|CS|OE|PDRV \$331 PDRV|VDD pfet_06v0 L=0.7U W=3U AS=0.78P
+ AD=1.32P PS=3.52U PD=6.88U
M$190 DVDD \$331 EN DVDD pfet_06v0 L=0.7U W=6U AS=2.64P AD=1.56P PS=12.88U
+ PD=6.52U
M$192 DVDD \$334 A|AB DVDD pfet_06v0 L=0.7U W=6U AS=2.64P AD=1.56P PS=12.88U
+ PD=6.52U
M$193 \$334 \$336 DVDD DVDD pfet_06v0 L=0.7U W=6U AS=1.56P AD=2.64P PS=6.52U
+ PD=12.88U
M$194 \$595 A|Z DVDD DVDD pfet_06v0 L=0.7U W=2U AS=0.88P AD=0.88P PS=4.88U
+ PD=4.88U
M$195 \$336 A|CS|OE|PDRV PDRV|VDD PDRV|VDD pfet_06v0 L=0.7U W=6U AS=2.1P
+ AD=2.1P PS=10.4U PD=10.4U
M$197 \$520 PU_B|Z DVDD DVDD pfet_06v0 L=0.7U W=3U AS=1.32P AD=1.32P PS=6.88U
+ PD=6.88U
M$198 \$341 A|CS|OE|PDRV PDRV|VDD PDRV|VDD pfet_06v0 L=0.7U W=3U AS=1.32P
+ AD=1.32P PS=6.88U PD=6.88U
M$199 A|PDB_OUT|Z B|PD|PD_IN PDRV|VDD PDRV|VDD pfet_06v0 L=0.7U W=12U AS=5.28P
+ AD=3.12P PS=27.52U PD=14.08U
M$200 PDRV|VDD A|B|Z A|PDB_OUT|Z PDRV|VDD pfet_06v0 L=0.7U W=12U AS=3.12P
+ AD=5.28P PS=14.08U PD=27.52U
M$201 Y Z PDRV|VDD PDRV|VDD pfet_06v0 L=0.7U W=84U AS=24.36P AD=24.36P
+ PS=111.92U PD=111.92U
M$207 \$522 B|PD|PD_IN PDRV|VDD PDRV|VDD pfet_06v0 L=0.7U W=3U AS=1.32P
+ AD=1.32P PS=6.88U PD=6.88U
M$208 SL|Z \$341 DVDD DVDD pfet_06v0 L=0.7U W=6U AS=2.1P AD=1.56P PS=10.4U
+ PD=7.04U
M$212 A|B|Z \$522 \$517 PDRV|VDD pfet_06v0 L=0.7U W=3U AS=1.32P AD=1.32P
+ PS=6.88U PD=6.88U
M$213 A|PUB_OUT|Z A|B|Z PDRV|VDD PDRV|VDD pfet_06v0 L=0.7U W=12U AS=5.28P
+ AD=3.12P PS=27.52U PD=14.08U
M$214 PDRV|VDD A|PU A|PUB_OUT|Z PDRV|VDD pfet_06v0 L=0.7U W=12U AS=3.12P
+ AD=5.28P PS=14.08U PD=27.52U
M$215 A|PU B|PD|PD_IN A|B|Z PDRV|VDD pfet_06v0 L=0.7U W=12U AS=5.28P AD=5.28P
+ PS=27.52U PD=27.52U
M$216 PDRV|VDD A|PU \$517 PDRV|VDD pfet_06v0 L=0.7U W=3U AS=1.32P AD=1.32P
+ PS=6.88U PD=6.88U
M$217 \$582 CS|Z DVDD DVDD pfet_06v0 L=0.7U W=8U AS=2.8P AD=2.8P PS=13.4U
+ PD=13.4U
M$219 \$576 CS|Z DVDD DVDD pfet_06v0 L=0.7U W=3U AS=1.05P AD=1.05P PS=5.9U
+ PD=5.9U
M$221 A|Z IE|Z DVDD DVDD pfet_06v0 L=0.7U W=24U AS=7.68P AD=7.68P PS=39.68U
+ PD=39.68U
M$224 DVDD A|IP_IN|PAD \$565 DVDD pfet_06v0 L=0.7U W=3.8U AS=1.33P AD=1.33P
+ PS=7.1U PD=7.1U
M$226 A|Z A|IP_IN|PAD \$565 DVDD pfet_06v0 L=0.7U W=4.3U AS=1.505P AD=1.505P
+ PS=7.85U PD=7.85U
M$228 DVSS \$576 \$565 DVDD pfet_06v0 L=0.7U W=3.8U AS=1.33P AD=1.33P PS=7.1U
+ PD=7.1U
M$230 A|Z \$582 \$576 DVDD pfet_06v0 L=0.7U W=2U AS=0.88P AD=0.88P PS=4.88U
+ PD=4.88U
M$231 \$578 \$582 A|Z DVDD pfet_06v0 L=0.7U W=2U AS=0.88P AD=0.88P PS=4.88U
+ PD=4.88U
M$232 \$567 A|Z DVDD DVDD pfet_06v0 L=0.7U W=2U AS=0.88P AD=0.88P PS=4.88U
+ PD=4.88U
M$233 \$497 PU_B|Z DVDD DVDD pfet_06v0 L=0.7U W=3U AS=1.32P AD=1.32P PS=6.88U
+ PD=6.88U
M$234 Z \$567 PDRV|VDD PDRV|VDD pfet_06v0 L=0.7U W=10U AS=3.05P AD=3.05P
+ PS=14.94U PD=14.94U
M$246 \$499 B|PD|PD_IN PDRV|VDD PDRV|VDD pfet_06v0 L=0.7U W=3U AS=1.32P
+ AD=1.32P PS=6.88U PD=6.88U
M$247 A|B|Z \$499 \$495 PDRV|VDD pfet_06v0 L=0.7U W=3U AS=1.32P AD=1.32P
+ PS=6.88U PD=6.88U
M$251 PDRV|VDD A|PU \$495 PDRV|VDD pfet_06v0 L=0.7U W=3U AS=1.32P AD=1.32P
+ PS=6.88U PD=6.88U
M$252 \$634 CS|Z DVDD DVDD pfet_06v0 L=0.7U W=8U AS=2.8P AD=2.8P PS=13.4U
+ PD=13.4U
M$257 A|Z A|IP_IN|PAD \$593 DVDD pfet_06v0 L=0.7U W=4.3U AS=1.505P AD=1.505P
+ PS=7.85U PD=7.85U
M$259 \$612 CS|Z DVDD DVDD pfet_06v0 L=0.7U W=3U AS=1.05P AD=1.05P PS=5.9U
+ PD=5.9U
M$261 DVDD A|IP_IN|PAD \$593 DVDD pfet_06v0 L=0.7U W=3.8U AS=1.33P AD=1.33P
+ PS=7.1U PD=7.1U
M$263 DVSS \$612 \$593 DVDD pfet_06v0 L=0.7U W=3.8U AS=1.33P AD=1.33P PS=7.1U
+ PD=7.1U
M$265 A|Z \$634 \$612 DVDD pfet_06v0 L=0.7U W=2U AS=0.88P AD=0.88P PS=4.88U
+ PD=4.88U
M$266 \$614 \$634 A|Z DVDD pfet_06v0 L=0.7U W=2U AS=0.88P AD=0.88P PS=4.88U
+ PD=4.88U
M$267 Z \$595 PDRV|VDD PDRV|VDD pfet_06v0 L=0.7U W=10U AS=3.05P AD=3.05P
+ PS=14.94U PD=14.94U
M$271 \$691 A|CS|IE PDRV|VDD PDRV|VDD pfet_06v0 L=0.7U W=3U AS=1.32P AD=1.32P
+ PS=6.88U PD=6.88U
M$272 PDRV|VDD A|CS|IE \$697 PDRV|VDD pfet_06v0 L=0.7U W=3U AS=1.32P AD=1.32P
+ PS=6.88U PD=6.88U
M$273 \$699 A|PDB_OUT|Z PDRV|VDD PDRV|VDD pfet_06v0 L=0.7U W=3U AS=1.32P
+ AD=1.32P PS=6.88U PD=6.88U
M$274 PDRV|VDD A|PUB_OUT|Z \$705 PDRV|VDD pfet_06v0 L=0.7U W=3U AS=1.32P
+ AD=1.32P PS=6.88U PD=6.88U
M$275 IE|Z \$691 DVDD DVDD pfet_06v0 L=0.7U W=6U AS=2.1P AD=1.56P PS=10.4U
+ PD=7.04U
M$277 ZB IE|Z DVDD DVDD pfet_06v0 L=0.7U W=24U AS=6.24P AD=8.4P PS=28.16U
+ PD=41.6U
M$279 ZB CS|Z DVDD DVDD pfet_06v0 L=0.7U W=24U AS=8.4P AD=6.24P PS=41.6U
+ PD=28.16U
M$281 CS|Z \$697 DVDD DVDD pfet_06v0 L=0.7U W=6U AS=1.56P AD=2.1P PS=7.04U
+ PD=10.4U
M$283 Z \$699 DVDD DVDD pfet_06v0 L=0.7U W=6U AS=2.1P AD=1.56P PS=10.4U PD=7.04U
M$285 PD|ZB Z DVDD DVDD pfet_06v0 L=0.7U W=24U AS=6.24P AD=8.4P PS=28.16U
+ PD=41.6U
M$287 ZB PU_B|Z DVDD DVDD pfet_06v0 L=0.7U W=24U AS=8.4P AD=6.24P PS=41.6U
+ PD=28.16U
M$289 PU_B|Z \$705 DVDD DVDD pfet_06v0 L=0.7U W=6U AS=1.56P AD=2.1P PS=7.04U
+ PD=10.4U
M$291 \$744 A|IE PDRV|VDD PDRV|VDD pfet_06v0 L=0.7U W=3U AS=1.32P AD=1.32P
+ PS=6.88U PD=6.88U
M$292 IE|Z \$744 DVDD DVDD pfet_06v0 L=0.7U W=6U AS=2.1P AD=1.56P PS=10.4U
+ PD=7.04U
M$298 CS|Z \$750 DVDD DVDD pfet_06v0 L=0.7U W=6U AS=1.56P AD=2.1P PS=7.04U
+ PD=10.4U
M$300 PDRV|VDD A|CS|OE|PDRV \$750 PDRV|VDD pfet_06v0 L=0.7U W=3U AS=1.32P
+ AD=1.32P PS=6.88U PD=6.88U
M$301 \$752 A|PDB_OUT|Z PDRV|VDD PDRV|VDD pfet_06v0 L=0.7U W=3U AS=1.32P
+ AD=1.32P PS=6.88U PD=6.88U
M$302 Z \$752 DVDD DVDD pfet_06v0 L=0.7U W=6U AS=2.1P AD=1.56P PS=10.4U PD=7.04U
M$308 PU_B|Z \$758 DVDD DVDD pfet_06v0 L=0.7U W=6U AS=1.56P AD=2.1P PS=7.04U
+ PD=10.4U
M$310 PDRV|VDD A|PUB_OUT|Z \$758 PDRV|VDD pfet_06v0 L=0.7U W=3U AS=1.32P
+ AD=1.32P PS=6.88U PD=6.88U
M$311 DVDD \$1077 NDRIVE_Y|ndrive_y_<0> DVDD pfet_06v0 L=0.7U W=24U AS=8.4P
+ AD=6.24P PS=37.4U PD=25.04U
M$315 \$1077 ENB \$1076 DVDD pfet_06v0 L=0.7U W=12U AS=5.28P AD=3.12P PS=24.88U
+ PD=12.52U
M$316 DVDD EN \$1077 DVDD pfet_06v0 L=0.7U W=12U AS=3.12P AD=3.12P PS=12.52U
+ PD=12.52U
M$317 \$1077 A|AB DVDD DVDD pfet_06v0 L=0.7U W=12U AS=3.12P AD=5.28P PS=12.52U
+ PD=24.88U
M$318 PDRIVE_Y|pdrive_y_<0> \$1076 DVDD DVDD pfet_06v0 L=0.7U W=24U AS=8.4P
+ AD=6.24P PS=37.4U PD=25.04U
M$320 PDRIVE_X|pdrive_x_<0> \$1076 DVDD DVDD pfet_06v0 L=0.7U W=24U AS=6.24P
+ AD=8.4P PS=25.04U PD=37.4U
M$322 PDRIVE_X|pdrive_x_<1> \$1083 DVDD DVDD pfet_06v0 L=0.7U W=24U AS=8.4P
+ AD=6.24P PS=37.4U PD=25.04U
M$324 PDRIVE_Y|pdrive_y_<1> \$1083 DVDD DVDD pfet_06v0 L=0.7U W=24U AS=6.24P
+ AD=8.4P PS=25.04U PD=37.4U
M$326 DVDD A|AB \$1082 DVDD pfet_06v0 L=0.7U W=12U AS=5.28P AD=3.12P PS=24.88U
+ PD=12.52U
M$327 \$1082 EN DVDD DVDD pfet_06v0 L=0.7U W=12U AS=3.12P AD=3.12P PS=12.52U
+ PD=12.52U
M$328 \$1083 ENB \$1082 DVDD pfet_06v0 L=0.7U W=12U AS=3.12P AD=5.28P PS=12.52U
+ PD=24.88U
M$331 DVDD \$1082 NDRIVE_Y|ndrive_Y_<1> DVDD pfet_06v0 L=0.7U W=24U AS=6.24P
+ AD=8.4P PS=25.04U PD=37.4U
M$333 DVDD \$1088 NDRIVE_Y|ndrive_y_<2> DVDD pfet_06v0 L=0.7U W=24U AS=8.4P
+ AD=6.24P PS=37.4U PD=25.04U
M$337 \$1088 ENB \$1087 DVDD pfet_06v0 L=0.7U W=12U AS=5.28P AD=3.12P PS=24.88U
+ PD=12.52U
M$338 DVDD EN \$1088 DVDD pfet_06v0 L=0.7U W=12U AS=3.12P AD=3.12P PS=12.52U
+ PD=12.52U
M$339 \$1088 A|AB DVDD DVDD pfet_06v0 L=0.7U W=12U AS=3.12P AD=5.28P PS=12.52U
+ PD=24.88U
M$340 PDRIVE_Y|pdrive_y_<2> \$1087 DVDD DVDD pfet_06v0 L=0.7U W=24U AS=8.4P
+ AD=6.24P PS=37.4U PD=25.04U
M$342 PDRIVE_X|pdrive_x_<2> \$1087 DVDD DVDD pfet_06v0 L=0.7U W=24U AS=6.24P
+ AD=8.4P PS=25.04U PD=37.4U
M$344 PDRIVE_X|pdrive_x_<3> \$1093 DVDD DVDD pfet_06v0 L=0.7U W=24U AS=8.4P
+ AD=6.24P PS=37.4U PD=25.04U
M$346 PDRIVE_Y|pdrive_y_<3> \$1093 DVDD DVDD pfet_06v0 L=0.7U W=24U AS=6.24P
+ AD=8.4P PS=25.04U PD=37.4U
M$348 DVDD A|AB \$1092 DVDD pfet_06v0 L=0.7U W=12U AS=5.28P AD=3.12P PS=24.88U
+ PD=12.52U
M$349 \$1092 EN DVDD DVDD pfet_06v0 L=0.7U W=12U AS=3.12P AD=3.12P PS=12.52U
+ PD=12.52U
M$350 \$1093 ENB \$1092 DVDD pfet_06v0 L=0.7U W=12U AS=3.12P AD=5.28P PS=12.52U
+ PD=24.88U
M$353 DVDD \$1092 NDRIVE_Y|ndrive_Y_<3> DVDD pfet_06v0 L=0.7U W=24U AS=6.24P
+ AD=8.4P PS=25.04U PD=37.4U
M$355 DVDD \$1120 NDRIVE_Y DVDD pfet_06v0 L=0.7U W=24U AS=8.4P AD=6.24P
+ PS=37.4U PD=25.04U
M$357 NDRIVE_X SL|Z NDRIVE_Y DVDD pfet_06v0 L=0.7U W=96U AS=29.28P AD=29.28P
+ PS=124.88U PD=124.88U
M$359 \$1120 ENB \$1119 DVDD pfet_06v0 L=0.7U W=12U AS=5.28P AD=3.12P PS=24.88U
+ PD=12.52U
M$360 DVDD EN \$1120 DVDD pfet_06v0 L=0.7U W=12U AS=3.12P AD=3.12P PS=12.52U
+ PD=12.52U
M$361 \$1120 A|AB DVDD DVDD pfet_06v0 L=0.7U W=12U AS=3.12P AD=5.28P PS=12.52U
+ PD=24.88U
M$362 PDRIVE_Y \$1119 DVDD DVDD pfet_06v0 L=0.7U W=24U AS=8.4P AD=6.24P
+ PS=37.4U PD=25.04U
M$364 PDRIVE_X \$1119 DVDD DVDD pfet_06v0 L=0.7U W=24U AS=6.24P AD=8.4P
+ PS=25.04U PD=37.4U
M$366 PDRIVE_X \$1126 DVDD DVDD pfet_06v0 L=0.7U W=24U AS=8.4P AD=6.24P
+ PS=37.4U PD=25.04U
M$368 PDRIVE_Y \$1126 DVDD DVDD pfet_06v0 L=0.7U W=24U AS=6.24P AD=8.4P
+ PS=25.04U PD=37.4U
M$370 DVDD A|AB \$1125 DVDD pfet_06v0 L=0.7U W=12U AS=5.28P AD=3.12P PS=24.88U
+ PD=12.52U
M$371 \$1125 EN DVDD DVDD pfet_06v0 L=0.7U W=12U AS=3.12P AD=3.12P PS=12.52U
+ PD=12.52U
M$372 \$1126 ENB \$1125 DVDD pfet_06v0 L=0.7U W=12U AS=3.12P AD=5.28P PS=12.52U
+ PD=24.88U
M$375 DVDD \$1125 NDRIVE_Y DVDD pfet_06v0 L=0.7U W=24U AS=6.24P AD=8.4P
+ PS=25.04U PD=37.4U
M$377 DVDD \$1131 NDRIVE_Y DVDD pfet_06v0 L=0.7U W=24U AS=8.4P AD=6.24P
+ PS=37.4U PD=25.04U
M$381 \$1131 ENB \$1130 DVDD pfet_06v0 L=0.7U W=12U AS=5.28P AD=3.12P PS=24.88U
+ PD=12.52U
M$382 DVDD EN \$1131 DVDD pfet_06v0 L=0.7U W=12U AS=3.12P AD=3.12P PS=12.52U
+ PD=12.52U
M$383 \$1131 A|AB DVDD DVDD pfet_06v0 L=0.7U W=12U AS=3.12P AD=5.28P PS=12.52U
+ PD=24.88U
M$384 PDRIVE_Y \$1130 DVDD DVDD pfet_06v0 L=0.7U W=24U AS=8.4P AD=6.24P
+ PS=37.4U PD=25.04U
M$386 PDRIVE_X \$1130 DVDD DVDD pfet_06v0 L=0.7U W=24U AS=6.24P AD=8.4P
+ PS=25.04U PD=37.4U
M$388 PDRIVE_X \$1136 DVDD DVDD pfet_06v0 L=0.7U W=24U AS=8.4P AD=6.24P
+ PS=37.4U PD=25.04U
M$390 PDRIVE_Y \$1136 DVDD DVDD pfet_06v0 L=0.7U W=24U AS=6.24P AD=8.4P
+ PS=25.04U PD=37.4U
M$392 DVDD A|AB \$1135 DVDD pfet_06v0 L=0.7U W=12U AS=5.28P AD=3.12P PS=24.88U
+ PD=12.52U
M$393 \$1135 EN DVDD DVDD pfet_06v0 L=0.7U W=12U AS=3.12P AD=3.12P PS=12.52U
+ PD=12.52U
M$394 \$1136 ENB \$1135 DVDD pfet_06v0 L=0.7U W=12U AS=3.12P AD=5.28P PS=12.52U
+ PD=24.88U
M$397 DVDD \$1135 NDRIVE_Y DVDD pfet_06v0 L=0.7U W=24U AS=6.24P AD=8.4P
+ PS=25.04U PD=37.4U
M$399 \$1232 PDRV|PDRV0 PDRV|VDD PDRV|VDD pfet_06v0 L=0.7U W=3U AS=1.32P
+ AD=0.78P PS=6.88U PD=3.52U
M$400 PDRV|VDD OE \$1232 PDRV|VDD pfet_06v0 L=0.7U W=3U AS=0.78P AD=1.32P
+ PS=3.52U PD=6.88U
M$402 DVDD \$1232 EN DVDD pfet_06v0 L=0.7U W=6U AS=2.64P AD=1.56P PS=12.88U
+ PD=6.52U
M$405 EN \$1236 DVDD DVDD pfet_06v0 L=0.7U W=6U AS=1.56P AD=2.64P PS=6.52U
+ PD=12.88U
M$406 \$1236 OE PDRV|VDD PDRV|VDD pfet_06v0 L=0.7U W=3U AS=1.32P AD=0.78P
+ PS=6.88U PD=3.52U
M$407 PDRV|VDD PDRV|PDRV1 \$1236 PDRV|VDD pfet_06v0 L=0.7U W=3U AS=0.78P
+ AD=1.32P PS=3.52U PD=6.88U
M$408 \$1240 PDRV|VDD PDRV|VDD PDRV|VDD pfet_06v0 L=0.7U W=3U AS=1.32P AD=0.78P
+ PS=6.88U PD=3.52U
M$409 PDRV|VDD OE \$1240 PDRV|VDD pfet_06v0 L=0.7U W=3U AS=0.78P AD=1.32P
+ PS=3.52U PD=6.88U
M$411 DVDD \$1240 EN DVDD pfet_06v0 L=0.7U W=6U AS=2.64P AD=1.56P PS=12.88U
+ PD=6.52U
M$414 DVDD \$1243 A|AB DVDD pfet_06v0 L=0.7U W=6U AS=2.64P AD=1.56P PS=12.88U
+ PD=6.52U
M$415 \$1243 \$1245 DVDD DVDD pfet_06v0 L=0.7U W=6U AS=1.56P AD=2.64P PS=6.52U
+ PD=12.88U
M$416 \$1245 A PDRV|VDD PDRV|VDD pfet_06v0 L=0.7U W=3U AS=1.32P AD=0.78P
+ PS=6.88U PD=3.52U
M$417 PDRV|VDD OE \$1245 PDRV|VDD pfet_06v0 L=0.7U W=3U AS=0.78P AD=1.32P
+ PS=3.52U PD=6.88U
M$418 \$1248 A|SL PDRV|VDD PDRV|VDD pfet_06v0 L=0.7U W=3U AS=1.32P AD=1.32P
+ PS=6.88U PD=6.88U
M$419 SL|Z \$1248 DVDD DVDD pfet_06v0 L=0.7U W=6U AS=2.1P AD=1.56P PS=10.4U
+ PD=7.04U
M$424 NDRIVE_Y DVSS NDRIVE_X DVDD pfet_06v0 L=0.7U W=4.8U AS=2.112P AD=2.112P
+ PS=13.12U PD=13.12U
M$425 DVDD \$1307 EN DVDD pfet_06v0 L=0.7U W=6U AS=2.64P AD=1.56P PS=12.88U
+ PD=6.52U
M$428 EN \$1311 DVDD DVDD pfet_06v0 L=0.7U W=6U AS=1.56P AD=2.64P PS=6.52U
+ PD=12.88U
M$430 DVDD \$1315 EN DVDD pfet_06v0 L=0.7U W=6U AS=2.64P AD=1.56P PS=12.88U
+ PD=6.52U
M$433 DVDD \$1318 A|AB DVDD pfet_06v0 L=0.7U W=6U AS=2.64P AD=1.56P PS=12.88U
+ PD=6.52U
M$434 \$1318 \$1320 DVDD DVDD pfet_06v0 L=0.7U W=6U AS=1.56P AD=2.64P PS=6.52U
+ PD=12.88U
M$435 \$1323 A|SL PDRV|VDD PDRV|VDD pfet_06v0 L=0.7U W=3U AS=1.32P AD=1.32P
+ PS=6.88U PD=6.88U
M$436 SL|Z \$1323 DVDD DVDD pfet_06v0 L=0.7U W=6U AS=2.1P AD=1.56P PS=10.4U
+ PD=7.04U
M$441 \$1437 PU_B|Z DVDD DVDD pfet_06v0 L=0.7U W=3U AS=1.32P AD=1.32P PS=6.88U
+ PD=6.88U
M$446 \$1307 PDRV PDRV|VDD PDRV|VDD pfet_06v0 L=0.7U W=3U AS=1.32P AD=0.78P
+ PS=6.88U PD=3.52U
M$447 PDRV|VDD OE \$1307 PDRV|VDD pfet_06v0 L=0.7U W=3U AS=0.78P AD=1.32P
+ PS=3.52U PD=6.88U
M$448 \$1311 OE PDRV|VDD PDRV|VDD pfet_06v0 L=0.7U W=3U AS=1.32P AD=0.78P
+ PS=6.88U PD=3.52U
M$449 PDRV|VDD PDRV \$1311 PDRV|VDD pfet_06v0 L=0.7U W=3U AS=0.78P AD=1.32P
+ PS=3.52U PD=6.88U
M$450 \$1315 PDRV|VDD PDRV|VDD PDRV|VDD pfet_06v0 L=0.7U W=3U AS=1.32P AD=0.78P
+ PS=6.88U PD=3.52U
M$451 PDRV|VDD OE \$1315 PDRV|VDD pfet_06v0 L=0.7U W=3U AS=0.78P AD=1.32P
+ PS=3.52U PD=6.88U
M$452 \$1320 A PDRV|VDD PDRV|VDD pfet_06v0 L=0.7U W=3U AS=1.32P AD=0.78P
+ PS=6.88U PD=3.52U
M$453 PDRV|VDD OE \$1320 PDRV|VDD pfet_06v0 L=0.7U W=3U AS=0.78P AD=1.32P
+ PS=3.52U PD=6.88U
M$454 \$1439 B|PD|PD_IN PDRV|VDD PDRV|VDD pfet_06v0 L=0.7U W=3U AS=1.32P
+ AD=1.32P PS=6.88U PD=6.88U
M$455 A|B|Z \$1439 \$1435 PDRV|VDD pfet_06v0 L=0.7U W=3U AS=1.32P AD=1.32P
+ PS=6.88U PD=6.88U
M$457 PDRV|VDD A|PU \$1435 PDRV|VDD pfet_06v0 L=0.7U W=3U AS=1.32P AD=1.32P
+ PS=6.88U PD=6.88U
M$458 \$1476 PU_B|Z DVDD DVDD pfet_06v0 L=0.7U W=3U AS=1.32P AD=1.32P PS=6.88U
+ PD=6.88U
M$461 \$1482 B|PD|PD_IN PDRV|VDD PDRV|VDD pfet_06v0 L=0.7U W=3U AS=1.32P
+ AD=1.32P PS=6.88U PD=6.88U
M$462 A|B|Z \$1482 \$1477 PDRV|VDD pfet_06v0 L=0.7U W=3U AS=1.32P AD=1.32P
+ PS=6.88U PD=6.88U
M$466 PDRV|VDD A|PU \$1477 PDRV|VDD pfet_06v0 L=0.7U W=3U AS=1.32P AD=1.32P
+ PS=6.88U PD=6.88U
M$467 \$1500 A|Z DVDD DVDD pfet_06v0 L=0.7U W=2U AS=0.88P AD=0.88P PS=4.88U
+ PD=4.88U
M$474 \$1512 CS|Z DVDD DVDD pfet_06v0 L=0.7U W=8U AS=2.8P AD=2.8P PS=13.4U
+ PD=13.4U
M$476 \$1504 CS|Z DVDD DVDD pfet_06v0 L=0.7U W=3U AS=1.05P AD=1.05P PS=5.9U
+ PD=5.9U
M$481 DVDD A|IP_IN|PAD \$1491 DVDD pfet_06v0 L=0.7U W=3.8U AS=1.33P AD=1.33P
+ PS=7.1U PD=7.1U
M$483 A|Z A|IP_IN|PAD \$1491 DVDD pfet_06v0 L=0.7U W=4.3U AS=1.505P AD=1.505P
+ PS=7.85U PD=7.85U
M$485 DVSS \$1504 \$1491 DVDD pfet_06v0 L=0.7U W=3.8U AS=1.33P AD=1.33P PS=7.1U
+ PD=7.1U
M$487 A|Z \$1512 \$1504 DVDD pfet_06v0 L=0.7U W=2U AS=0.88P AD=0.88P PS=4.88U
+ PD=4.88U
M$488 \$1510 \$1512 A|Z DVDD pfet_06v0 L=0.7U W=2U AS=0.88P AD=0.88P PS=4.88U
+ PD=4.88U
M$489 Z \$1500 PDRV|VDD PDRV|VDD pfet_06v0 L=0.7U W=10U AS=3.05P AD=3.05P
+ PS=14.94U PD=14.94U
M$493 \$1596 CS|Z DVDD DVDD pfet_06v0 L=0.7U W=8U AS=2.8P AD=2.8P PS=13.4U
+ PD=13.4U
M$495 \$1574 CS|Z DVDD DVDD pfet_06v0 L=0.7U W=3U AS=1.05P AD=1.05P PS=5.9U
+ PD=5.9U
M$500 DVDD A|IP_IN|PAD \$1555 DVDD pfet_06v0 L=0.7U W=3.8U AS=1.33P AD=1.33P
+ PS=7.1U PD=7.1U
M$502 A|Z A|IP_IN|PAD \$1555 DVDD pfet_06v0 L=0.7U W=4.3U AS=1.505P AD=1.505P
+ PS=7.85U PD=7.85U
M$504 DVSS \$1574 \$1555 DVDD pfet_06v0 L=0.7U W=3.8U AS=1.33P AD=1.33P PS=7.1U
+ PD=7.1U
M$506 \$1557 A|Z DVDD DVDD pfet_06v0 L=0.7U W=2U AS=0.88P AD=0.88P PS=4.88U
+ PD=4.88U
M$513 \$1581 A|IE PDRV|VDD PDRV|VDD pfet_06v0 L=0.7U W=3U AS=1.32P AD=1.32P
+ PS=6.88U PD=6.88U
M$514 IE|Z \$1581 DVDD DVDD pfet_06v0 L=0.7U W=6U AS=2.1P AD=1.56P PS=10.4U
+ PD=7.04U
M$520 CS|Z \$1587 DVDD DVDD pfet_06v0 L=0.7U W=6U AS=1.56P AD=2.1P PS=7.04U
+ PD=10.4U
M$522 PDRV|VDD A|CS \$1587 PDRV|VDD pfet_06v0 L=0.7U W=3U AS=1.32P AD=1.32P
+ PS=6.88U PD=6.88U
M$523 \$1589 A|PDB_OUT|Z PDRV|VDD PDRV|VDD pfet_06v0 L=0.7U W=3U AS=1.32P
+ AD=1.32P PS=6.88U PD=6.88U
M$524 Z \$1589 DVDD DVDD pfet_06v0 L=0.7U W=6U AS=2.1P AD=1.56P PS=10.4U
+ PD=7.04U
M$530 PU_B|Z \$1595 DVDD DVDD pfet_06v0 L=0.7U W=6U AS=1.56P AD=2.1P PS=7.04U
+ PD=10.4U
M$532 PDRV|VDD A|PUB_OUT|Z \$1595 PDRV|VDD pfet_06v0 L=0.7U W=3U AS=1.32P
+ AD=1.32P PS=6.88U PD=6.88U
M$533 A|Z \$1596 \$1574 DVDD pfet_06v0 L=0.7U W=2U AS=0.88P AD=0.88P PS=4.88U
+ PD=4.88U
M$534 \$1577 \$1596 A|Z DVDD pfet_06v0 L=0.7U W=2U AS=0.88P AD=0.88P PS=4.88U
+ PD=4.88U
M$535 Z \$1557 PDRV|VDD PDRV|VDD pfet_06v0 L=0.7U W=10U AS=3.05P AD=3.05P
+ PS=14.94U PD=14.94U
M$539 \$1658 A|IE PDRV|VDD PDRV|VDD pfet_06v0 L=0.7U W=3U AS=1.32P AD=1.32P
+ PS=6.88U PD=6.88U
M$540 IE|Z \$1658 DVDD DVDD pfet_06v0 L=0.7U W=6U AS=2.1P AD=1.56P PS=10.4U
+ PD=7.04U
M$546 CS|Z \$1664 DVDD DVDD pfet_06v0 L=0.7U W=6U AS=1.56P AD=2.1P PS=7.04U
+ PD=10.4U
M$548 PDRV|VDD A|CS \$1664 PDRV|VDD pfet_06v0 L=0.7U W=3U AS=1.32P AD=1.32P
+ PS=6.88U PD=6.88U
M$549 \$1666 A|PDB_OUT|Z PDRV|VDD PDRV|VDD pfet_06v0 L=0.7U W=3U AS=1.32P
+ AD=1.32P PS=6.88U PD=6.88U
M$550 Z \$1666 DVDD DVDD pfet_06v0 L=0.7U W=6U AS=2.1P AD=1.56P PS=10.4U
+ PD=7.04U
M$556 PU_B|Z \$1672 DVDD DVDD pfet_06v0 L=0.7U W=6U AS=1.56P AD=2.1P PS=7.04U
+ PD=10.4U
M$558 PDRV|VDD A|PUB_OUT|Z \$1672 PDRV|VDD pfet_06v0 L=0.7U W=3U AS=1.32P
+ AD=1.32P PS=6.88U PD=6.88U
M$559 DVSS|VMINUS \$62 DVDD|VDD|VPLUS vss nfet_06v0 L=0.7U W=4000U AS=1076P
+ AD=1076P PS=4243.04U PD=4243.04U
M$579 DVDD|VPLUS \$59 DVSS|VMINUS|VSS vss nfet_06v0 L=0.7U W=4000U AS=1076P
+ AD=1076P PS=4243.04U PD=4243.04U
M$719 PDRIVE_X|pdrive_x_<0> DVDD PDRIVE_Y|pdrive_y_<0> vss nfet_06v0 L=0.7U
+ W=3.6U AS=1.584P AD=1.584P PS=9.84U PD=9.84U
M$720 PDRIVE_Y|pdrive_y_<1> DVDD PDRIVE_X|pdrive_x_<1> vss nfet_06v0 L=0.7U
+ W=3.6U AS=1.584P AD=1.584P PS=9.84U PD=9.84U
M$721 PDRIVE_X|pdrive_x_<2> DVDD PDRIVE_Y|pdrive_y_<2> vss nfet_06v0 L=0.7U
+ W=3.6U AS=1.584P AD=1.584P PS=9.84U PD=9.84U
M$722 PDRIVE_Y|pdrive_y_<3> DVDD PDRIVE_X|pdrive_x_<3> vss nfet_06v0 L=0.7U
+ W=3.6U AS=1.584P AD=1.584P PS=9.84U PD=9.84U
M$723 NDRIVE_X|ndrive_x_<0> \$114 DVSS vss nfet_06v0 L=0.7U W=12U AS=4.2P
+ AD=3.12P PS=19.4U PD=13.04U
M$725 NDRIVE_Y|ndrive_y_<0> \$114 DVSS vss nfet_06v0 L=0.7U W=12U AS=3.12P
+ AD=3.12P PS=13.04U PD=13.04U
M$727 \$113 ENB DVSS vss nfet_06v0 L=0.7U W=6U AS=1.56P AD=1.56P PS=6.52U
+ PD=6.52U
M$728 \$114 EN \$113 vss nfet_06v0 L=0.7U W=6U AS=1.56P AD=2.64P PS=6.52U
+ PD=12.88U
M$729 DVSS A|AB \$113 vss nfet_06v0 L=0.7U W=6U AS=2.64P AD=1.56P PS=12.88U
+ PD=6.52U
M$730 PDRIVE_Y|pdrive_y_<0> \$113 DVSS vss nfet_06v0 L=0.7U W=12U AS=3.12P
+ AD=4.2P PS=13.04U PD=19.4U
M$732 PDRIVE_Y|pdrive_y_<0> SLB|ZB PDRIVE_X|pdrive_x_<0> vss nfet_06v0 L=0.7U
+ W=36U AS=12.6P AD=12.6P PS=58.2U PD=58.2U
M$734 PDRIVE_Y|pdrive_y_<1> SLB|ZB PDRIVE_X|pdrive_x_<1> vss nfet_06v0 L=0.7U
+ W=36U AS=12.6P AD=12.6P PS=58.2U PD=58.2U
M$736 PDRIVE_Y|pdrive_y_<1> \$120 DVSS vss nfet_06v0 L=0.7U W=12U AS=4.2P
+ AD=3.12P PS=19.4U PD=13.04U
M$738 \$120 A|AB DVSS vss nfet_06v0 L=0.7U W=6U AS=1.56P AD=2.64P PS=6.52U
+ PD=12.88U
M$739 \$120 EN \$119 vss nfet_06v0 L=0.7U W=6U AS=2.64P AD=1.56P PS=12.88U
+ PD=6.52U
M$740 DVSS ENB \$120 vss nfet_06v0 L=0.7U W=6U AS=1.56P AD=1.56P PS=6.52U
+ PD=6.52U
M$741 NDRIVE_Y|ndrive_Y_<1> \$119 DVSS vss nfet_06v0 L=0.7U W=12U AS=3.12P
+ AD=3.12P PS=13.04U PD=13.04U
M$743 NDRIVE_X|ndrive_x_<1> \$119 DVSS vss nfet_06v0 L=0.7U W=12U AS=3.12P
+ AD=4.2P PS=13.04U PD=19.4U
M$745 NDRIVE_X|ndrive_x_<2> \$125 DVSS vss nfet_06v0 L=0.7U W=12U AS=4.2P
+ AD=3.12P PS=19.4U PD=13.04U
M$747 NDRIVE_Y|ndrive_y_<2> \$125 DVSS vss nfet_06v0 L=0.7U W=12U AS=3.12P
+ AD=3.12P PS=13.04U PD=13.04U
M$749 \$124 ENB DVSS vss nfet_06v0 L=0.7U W=6U AS=1.56P AD=1.56P PS=6.52U
+ PD=6.52U
M$750 \$125 EN \$124 vss nfet_06v0 L=0.7U W=6U AS=1.56P AD=2.64P PS=6.52U
+ PD=12.88U
M$751 DVSS A|AB \$124 vss nfet_06v0 L=0.7U W=6U AS=2.64P AD=1.56P PS=12.88U
+ PD=6.52U
M$752 PDRIVE_Y|pdrive_y_<2> \$124 DVSS vss nfet_06v0 L=0.7U W=12U AS=3.12P
+ AD=4.2P PS=13.04U PD=19.4U
M$754 PDRIVE_Y|pdrive_y_<2> SLB|ZB PDRIVE_X|pdrive_x_<2> vss nfet_06v0 L=0.7U
+ W=36U AS=12.6P AD=12.6P PS=58.2U PD=58.2U
M$756 PDRIVE_Y|pdrive_y_<3> SLB|ZB PDRIVE_X|pdrive_x_<3> vss nfet_06v0 L=0.7U
+ W=36U AS=12.6P AD=12.6P PS=58.2U PD=58.2U
M$758 PDRIVE_Y|pdrive_y_<3> \$130 DVSS vss nfet_06v0 L=0.7U W=12U AS=4.2P
+ AD=3.12P PS=19.4U PD=13.04U
M$760 \$130 A|AB DVSS vss nfet_06v0 L=0.7U W=6U AS=1.56P AD=2.64P PS=6.52U
+ PD=12.88U
M$761 \$130 EN \$129 vss nfet_06v0 L=0.7U W=6U AS=2.64P AD=1.56P PS=12.88U
+ PD=6.52U
M$762 DVSS ENB \$130 vss nfet_06v0 L=0.7U W=6U AS=1.56P AD=1.56P PS=6.52U
+ PD=6.52U
M$763 NDRIVE_Y|ndrive_Y_<3> \$129 DVSS vss nfet_06v0 L=0.7U W=12U AS=3.12P
+ AD=3.12P PS=13.04U PD=13.04U
M$765 NDRIVE_X|ndrive_x_<3> \$129 DVSS vss nfet_06v0 L=0.7U W=12U AS=3.12P
+ AD=4.2P PS=13.04U PD=19.4U
M$767 NDRIVE_X|ndrive_x_<0> \$138 DVSS vss nfet_06v0 L=0.7U W=12U AS=4.2P
+ AD=3.12P PS=19.4U PD=13.04U
M$769 NDRIVE_Y|ndrive_y_<0> \$138 DVSS vss nfet_06v0 L=0.7U W=12U AS=3.12P
+ AD=3.12P PS=13.04U PD=13.04U
M$771 \$137 ENB DVSS vss nfet_06v0 L=0.7U W=6U AS=1.56P AD=1.56P PS=6.52U
+ PD=6.52U
M$772 \$138 EN \$137 vss nfet_06v0 L=0.7U W=6U AS=1.56P AD=2.64P PS=6.52U
+ PD=12.88U
M$773 DVSS A|AB \$137 vss nfet_06v0 L=0.7U W=6U AS=2.64P AD=1.56P PS=12.88U
+ PD=6.52U
M$774 PDRIVE_Y|pdrive_y_<0> \$137 DVSS vss nfet_06v0 L=0.7U W=12U AS=3.12P
+ AD=4.2P PS=13.04U PD=19.4U
M$782 PDRIVE_Y|pdrive_y_<1> \$144 DVSS vss nfet_06v0 L=0.7U W=12U AS=4.2P
+ AD=3.12P PS=19.4U PD=13.04U