* Extracted by KLayout with GF180MCU LVS runset on : 21/08/2025 06:35

.SUBCKT bandgap I1_default_C I1_default_B I1_default_E SUB
M$1 \$386 \$433 \$385 \$456 pfet_05v0 L=0.5U W=4U AS=3.08P AD=3.08P PS=9.54U
+ PD=9.54U
M$2 \$388 \$434 \$387 \$454 pfet_05v0 L=0.5U W=4U AS=3.08P AD=3.08P PS=9.54U
+ PD=9.54U
M$3 \$390 \$435 \$389 \$452 pfet_05v0 L=0.5U W=4U AS=3.08P AD=3.08P PS=9.54U
+ PD=9.54U
M$4 \$392 \$436 \$391 \$450 pfet_05v0 L=0.5U W=4U AS=3.08P AD=3.08P PS=9.54U
+ PD=9.54U
M$5 \$394 \$437 \$393 \$447 pfet_05v0 L=0.5U W=4U AS=3.08P AD=3.08P PS=9.54U
+ PD=9.54U
M$6 \$396 \$438 \$395 \$445 pfet_05v0 L=0.5U W=4U AS=3.08P AD=3.08P PS=9.54U
+ PD=9.54U
M$7 \$398 \$439 \$397 \$444 pfet_05v0 L=0.5U W=4U AS=3.08P AD=3.08P PS=9.54U
+ PD=9.54U
M$8 \$400 \$440 \$399 \$442 pfet_05v0 L=0.5U W=4U AS=3.08P AD=3.08P PS=9.54U
+ PD=9.54U
M$9 \$466 \$529 \$465 \$551 pfet_05v0 L=0.5U W=4U AS=3.08P AD=3.08P PS=9.54U
+ PD=9.54U
M$10 \$468 \$530 \$467 \$547 pfet_05v0 L=0.5U W=4U AS=3.08P AD=3.08P PS=9.54U
+ PD=9.54U
M$11 \$470 \$531 \$469 \$544 pfet_05v0 L=0.5U W=4U AS=3.08P AD=3.08P PS=9.54U
+ PD=9.54U
M$12 \$472 \$532 \$471 \$542 pfet_05v0 L=0.5U W=4U AS=3.08P AD=3.08P PS=9.54U
+ PD=9.54U
M$13 \$474 \$533 \$473 \$560 pfet_05v0 L=0.5U W=4U AS=3.08P AD=3.08P PS=9.54U
+ PD=9.54U
M$14 \$476 \$534 \$475 \$557 pfet_05v0 L=0.5U W=4U AS=3.08P AD=3.08P PS=9.54U
+ PD=9.54U
M$15 \$478 \$535 \$477 \$555 pfet_05v0 L=0.5U W=4U AS=3.08P AD=3.08P PS=9.54U
+ PD=9.54U
M$16 \$480 \$536 \$479 \$553 pfet_05v0 L=0.5U W=4U AS=3.08P AD=3.08P PS=9.54U
+ PD=9.54U
M$17 \$562 \$601 \$561 \$622 pfet_05v0 L=0.5U W=4U AS=3.08P AD=3.08P PS=9.54U
+ PD=9.54U
M$18 \$564 \$602 \$563 \$626 pfet_05v0 L=0.5U W=4U AS=3.08P AD=3.08P PS=9.54U
+ PD=9.54U
M$19 \$566 \$603 \$565 \$631 pfet_05v0 L=0.5U W=4U AS=3.08P AD=3.08P PS=9.54U
+ PD=9.54U
M$20 \$568 \$604 \$567 \$624 pfet_05v0 L=0.5U W=4U AS=3.08P AD=3.08P PS=9.54U
+ PD=9.54U
M$21 \$570 \$605 \$569 \$676 pfet_05v0 L=0.5U W=4U AS=3.08P AD=3.08P PS=9.54U
+ PD=9.54U
M$22 \$572 \$606 \$571 \$673 pfet_05v0 L=0.5U W=4U AS=3.08P AD=3.08P PS=9.54U
+ PD=9.54U
M$23 \$574 \$607 \$573 \$672 pfet_05v0 L=0.5U W=4U AS=3.08P AD=3.08P PS=9.54U
+ PD=9.54U
M$24 \$576 \$608 \$575 \$670 pfet_05v0 L=0.5U W=4U AS=3.08P AD=3.08P PS=9.54U
+ PD=9.54U
M$25 \$686 \$781 \$685 \$823 pfet_05v0 L=0.5U W=4U AS=3.08P AD=3.08P PS=9.54U
+ PD=9.54U
M$26 \$688 \$782 \$687 \$822 pfet_05v0 L=0.5U W=4U AS=3.08P AD=3.08P PS=9.54U
+ PD=9.54U
M$27 \$690 \$783 \$689 \$819 pfet_05v0 L=0.5U W=4U AS=3.08P AD=3.08P PS=9.54U
+ PD=9.54U
M$28 \$692 \$784 \$691 \$818 pfet_05v0 L=0.5U W=4U AS=3.08P AD=3.08P PS=9.54U
+ PD=9.54U
M$29 \$694 \$785 \$693 \$815 pfet_05v0 L=0.5U W=4U AS=3.08P AD=3.08P PS=9.54U
+ PD=9.54U
M$30 \$696 \$786 \$695 \$814 pfet_05v0 L=0.5U W=4U AS=3.08P AD=3.08P PS=9.54U
+ PD=9.54U
M$31 \$698 \$787 \$697 \$812 pfet_05v0 L=0.5U W=4U AS=3.08P AD=3.08P PS=9.54U
+ PD=9.54U
M$32 \$700 \$788 \$699 \$809 pfet_05v0 L=0.5U W=4U AS=3.08P AD=3.08P PS=9.54U
+ PD=9.54U
M$33 \$850 \$893 \$849 \$940 pfet_05v0 L=0.5U W=4U AS=3.08P AD=3.08P PS=9.54U
+ PD=9.54U
M$34 \$852 \$894 \$851 \$945 pfet_05v0 L=0.5U W=4U AS=3.08P AD=3.08P PS=9.54U
+ PD=9.54U
M$35 \$854 \$895 \$853 \$946 pfet_05v0 L=0.5U W=4U AS=3.08P AD=3.08P PS=9.54U
+ PD=9.54U
M$36 \$856 \$896 \$855 \$951 pfet_05v0 L=0.5U W=4U AS=3.08P AD=3.08P PS=9.54U
+ PD=9.54U
M$37 \$858 \$897 \$857 \$952 pfet_05v0 L=0.5U W=4U AS=3.08P AD=3.08P PS=9.54U
+ PD=9.54U
M$38 \$860 \$898 \$859 \$957 pfet_05v0 L=0.5U W=4U AS=3.08P AD=3.08P PS=9.54U
+ PD=9.54U
M$39 \$862 \$899 \$861 \$958 pfet_05v0 L=0.5U W=4U AS=3.08P AD=3.08P PS=9.54U
+ PD=9.54U
M$40 \$864 \$900 \$863 \$937 pfet_05v0 L=0.5U W=4U AS=3.08P AD=3.08P PS=9.54U
+ PD=9.54U
M$41 \$1006 \$1067 \$1005 \$1075 pfet_05v0 L=0.5U W=4U AS=3.08P AD=3.08P
+ PS=9.54U PD=9.54U
M$42 \$1008 \$1068 \$1007 \$1079 pfet_05v0 L=0.5U W=4U AS=3.08P AD=3.08P
+ PS=9.54U PD=9.54U
M$43 \$1010 \$1069 \$1009 \$1082 pfet_05v0 L=0.5U W=4U AS=3.08P AD=3.08P
+ PS=9.54U PD=9.54U
M$44 \$1012 \$1070 \$1011 \$1085 pfet_05v0 L=0.5U W=4U AS=3.08P AD=3.08P
+ PS=9.54U PD=9.54U
M$45 \$1014 \$1071 \$1013 \$1126 pfet_05v0 L=0.5U W=4U AS=3.08P AD=3.08P
+ PS=9.54U PD=9.54U
M$46 \$1016 \$1072 \$1015 \$1128 pfet_05v0 L=0.5U W=4U AS=3.08P AD=3.08P
+ PS=9.54U PD=9.54U
M$47 \$1018 \$1073 \$1017 \$1130 pfet_05v0 L=0.5U W=4U AS=3.08P AD=3.08P
+ PS=9.54U PD=9.54U
M$48 \$1020 \$1074 \$1019 \$1132 pfet_05v0 L=0.5U W=4U AS=3.08P AD=3.08P
+ PS=9.54U PD=9.54U
M$49 \$1154 \$1290 \$1153 \$1308 pfet_05v0 L=0.5U W=4U AS=3.08P AD=3.08P
+ PS=9.54U PD=9.54U
M$50 \$1156 \$1291 \$1155 \$1310 pfet_05v0 L=0.5U W=4U AS=3.08P AD=3.08P
+ PS=9.54U PD=9.54U
M$51 \$1158 \$1292 \$1157 \$1314 pfet_05v0 L=0.5U W=4U AS=3.08P AD=3.08P
+ PS=9.54U PD=9.54U
M$52 \$1160 \$1293 \$1159 \$1316 pfet_05v0 L=0.5U W=4U AS=3.08P AD=3.08P
+ PS=9.54U PD=9.54U
M$53 \$1162 \$1294 \$1161 \$1320 pfet_05v0 L=0.5U W=4U AS=3.08P AD=3.08P
+ PS=9.54U PD=9.54U
M$54 \$1164 \$1295 \$1163 \$1322 pfet_05v0 L=0.5U W=4U AS=3.08P AD=3.08P
+ PS=9.54U PD=9.54U
M$55 \$1166 \$1296 \$1165 \$1325 pfet_05v0 L=0.5U W=4U AS=3.08P AD=3.08P
+ PS=9.54U PD=9.54U
M$56 \$1168 \$1297 \$1167 \$1328 pfet_05v0 L=0.5U W=4U AS=3.08P AD=3.08P
+ PS=9.54U PD=9.54U
M$57 \$1379 \$1450 \$1378 \$1477 pfet_05v0 L=0.5U W=4U AS=3.08P AD=3.08P
+ PS=9.54U PD=9.54U
M$58 \$1381 \$1451 \$1380 \$1480 pfet_05v0 L=0.5U W=4U AS=3.08P AD=3.08P
+ PS=9.54U PD=9.54U
M$59 \$1383 \$1452 \$1382 \$1473 pfet_05v0 L=0.5U W=4U AS=3.08P AD=3.08P
+ PS=9.54U PD=9.54U
M$60 \$1385 \$1453 \$1384 \$1470 pfet_05v0 L=0.5U W=4U AS=3.08P AD=3.08P
+ PS=9.54U PD=9.54U
M$61 \$1387 \$1454 \$1386 \$1467 pfet_05v0 L=0.5U W=4U AS=3.08P AD=3.08P
+ PS=9.54U PD=9.54U
M$62 \$1389 \$1455 \$1388 \$1464 pfet_05v0 L=0.5U W=4U AS=3.08P AD=3.08P
+ PS=9.54U PD=9.54U
M$63 \$1391 \$1456 \$1390 \$1462 pfet_05v0 L=0.5U W=4U AS=3.08P AD=3.08P
+ PS=9.54U PD=9.54U
M$64 \$1393 \$1457 \$1392 \$1459 pfet_05v0 L=0.5U W=4U AS=3.08P AD=3.08P
+ PS=9.54U PD=9.54U
M$65 \$1518 \$1618 \$1517 \$1651 pfet_05v0 L=0.8U W=3.2U AS=2.464P AD=2.464P
+ PS=7.94U PD=7.94U
M$66 \$1520 \$1619 \$1519 \$1654 pfet_05v0 L=0.8U W=3.2U AS=2.464P AD=2.464P
+ PS=7.94U PD=7.94U
M$67 \$1522 \$1620 \$1521 \$1658 pfet_05v0 L=0.8U W=3.2U AS=2.464P AD=2.464P
+ PS=7.94U PD=7.94U
M$68 \$1524 \$1621 \$1523 \$1664 pfet_05v0 L=0.8U W=3.2U AS=2.464P AD=2.464P
+ PS=7.94U PD=7.94U
M$69 \$1526 \$1622 \$1525 \$1667 pfet_05v0 L=0.8U W=3.2U AS=2.464P AD=2.464P
+ PS=7.94U PD=7.94U
M$70 \$1528 \$1623 \$1527 \$1669 pfet_05v0 L=0.8U W=3.2U AS=2.464P AD=2.464P
+ PS=7.94U PD=7.94U
M$71 \$1530 \$1624 \$1529 \$1675 pfet_05v0 L=0.8U W=3.2U AS=2.464P AD=2.464P
+ PS=7.94U PD=7.94U
M$72 \$1532 \$1625 \$1531 \$1677 pfet_05v0 L=0.8U W=3.2U AS=2.464P AD=2.464P
+ PS=7.94U PD=7.94U
M$73 \$1534 \$1626 \$1533 \$1681 pfet_05v0 L=0.8U W=3.2U AS=2.464P AD=2.464P
+ PS=7.94U PD=7.94U
M$74 \$1536 \$1627 \$1535 \$1684 pfet_05v0 L=0.8U W=3.2U AS=2.464P AD=2.464P
+ PS=7.94U PD=7.94U
M$75 \$1559 \$1628 \$1558 \$1687 pfet_05v0 L=0.8U W=3.2U AS=2.464P AD=2.464P
+ PS=7.94U PD=7.94U
M$76 \$1561 \$1629 \$1560 \$1692 pfet_05v0 L=0.8U W=3.2U AS=2.464P AD=2.464P
+ PS=7.94U PD=7.94U
M$77 \$1563 \$1630 \$1562 \$1694 pfet_05v0 L=0.8U W=3.2U AS=2.464P AD=2.464P
+ PS=7.94U PD=7.94U
M$78 \$1565 \$1631 \$1564 \$1697 pfet_05v0 L=0.8U W=3.2U AS=2.464P AD=2.464P
+ PS=7.94U PD=7.94U
M$79 \$1567 \$1632 \$1566 \$1701 pfet_05v0 L=0.8U W=3.2U AS=2.464P AD=2.464P
+ PS=7.94U PD=7.94U
M$80 \$1569 \$1633 \$1568 \$1704 pfet_05v0 L=0.8U W=3.2U AS=2.464P AD=2.464P
+ PS=7.94U PD=7.94U
M$81 \$1571 \$1634 \$1570 \$1706 pfet_05v0 L=0.8U W=3.2U AS=2.464P AD=2.464P
+ PS=7.94U PD=7.94U
M$82 \$1573 \$1635 \$1572 \$1710 pfet_05v0 L=0.8U W=3.2U AS=2.464P AD=2.464P
+ PS=7.94U PD=7.94U
M$83 \$1575 \$1636 \$1574 \$1712 pfet_05v0 L=0.8U W=3.2U AS=2.464P AD=2.464P
+ PS=7.94U PD=7.94U
M$84 \$1577 \$1637 \$1576 \$1715 pfet_05v0 L=0.8U W=3.2U AS=2.464P AD=2.464P
+ PS=7.94U PD=7.94U
M$85 \$1579 \$1638 \$1578 \$1718 pfet_05v0 L=0.8U W=3.2U AS=2.464P AD=2.464P
+ PS=7.94U PD=7.94U
M$86 \$1581 \$1639 \$1580 \$1722 pfet_05v0 L=0.8U W=3.2U AS=2.464P AD=2.464P
+ PS=7.94U PD=7.94U
M$87 \$1583 \$1640 \$1582 \$1724 pfet_05v0 L=0.8U W=3.2U AS=2.464P AD=2.464P
+ PS=7.94U PD=7.94U
M$88 \$1585 \$1641 \$1584 \$1727 pfet_05v0 L=0.8U W=3.2U AS=2.464P AD=2.464P
+ PS=7.94U PD=7.94U
M$89 \$1587 \$1642 \$1586 \$1672 pfet_05v0 L=0.8U W=3.2U AS=2.464P AD=2.464P
+ PS=7.94U PD=7.94U
M$90 \$1589 \$1643 \$1588 \$1662 pfet_05v0 L=0.8U W=3.2U AS=2.464P AD=2.464P
+ PS=7.94U PD=7.94U
M$91 \$1730 \$1836 \$1729 \$1872 pfet_05v0 L=3.2U W=3.2U AS=2.464P AD=2.464P
+ PS=7.94U PD=7.94U
M$92 \$1732 \$1837 \$1731 \$1873 pfet_05v0 L=3.2U W=3.2U AS=2.464P AD=2.464P
+ PS=7.94U PD=7.94U
M$93 \$1734 \$1838 \$1733 \$1876 pfet_05v0 L=0.8U W=3.2U AS=2.464P AD=2.464P
+ PS=7.94U PD=7.94U
M$94 \$1736 \$1839 \$1735 \$1881 pfet_05v0 L=0.8U W=3.2U AS=2.464P AD=2.464P
+ PS=7.94U PD=7.94U
M$95 \$1738 \$1840 \$1737 \$1888 pfet_05v0 L=0.8U W=3.2U AS=2.464P AD=2.464P
+ PS=7.94U PD=7.94U
M$96 \$1740 \$1841 \$1739 \$1892 pfet_05v0 L=0.8U W=3.2U AS=2.464P AD=2.464P
+ PS=7.94U PD=7.94U
M$97 \$1742 \$1842 \$1741 \$1897 pfet_05v0 L=0.8U W=3.2U AS=2.464P AD=2.464P
+ PS=7.94U PD=7.94U
M$98 \$1744 \$1843 \$1743 \$1901 pfet_05v0 L=0.8U W=3.2U AS=2.464P AD=2.464P
+ PS=7.94U PD=7.94U
M$99 \$1746 \$1844 \$1745 \$1906 pfet_05v0 L=0.8U W=3.2U AS=2.464P AD=2.464P
+ PS=7.94U PD=7.94U
M$100 \$1748 \$1845 \$1747 \$1909 pfet_05v0 L=0.8U W=3.2U AS=2.464P AD=2.464P
+ PS=7.94U PD=7.94U
M$101 \$1750 \$1846 \$1749 \$1916 pfet_05v0 L=0.8U W=3.2U AS=2.464P AD=2.464P
+ PS=7.94U PD=7.94U
M$102 \$1752 \$1847 \$1751 \$1922 pfet_05v0 L=0.8U W=3.2U AS=2.464P AD=2.464P
+ PS=7.94U PD=7.94U
M$103 \$1754 \$1848 \$1753 \$1923 pfet_05v0 L=0.8U W=3.2U AS=2.464P AD=2.464P
+ PS=7.94U PD=7.94U
M$104 \$1756 \$1849 \$1755 \$1928 pfet_05v0 L=0.8U W=3.2U AS=2.464P AD=2.464P
+ PS=7.94U PD=7.94U
M$105 \$1758 \$1850 \$1757 \$1930 pfet_05v0 L=0.8U W=3.2U AS=2.464P AD=2.464P
+ PS=7.94U PD=7.94U
M$106 \$1760 \$1851 \$1759 \$1934 pfet_05v0 L=0.8U W=3.2U AS=2.464P AD=2.464P
+ PS=7.94U PD=7.94U
M$107 \$1762 \$1852 \$1761 \$1936 pfet_05v0 L=0.8U W=3.2U AS=2.464P AD=2.464P
+ PS=7.94U PD=7.94U
M$108 \$1764 \$1853 \$1763 \$1940 pfet_05v0 L=0.8U W=3.2U AS=2.464P AD=2.464P
+ PS=7.94U PD=7.94U
M$109 \$1766 \$1854 \$1765 \$1943 pfet_05v0 L=0.8U W=3.2U AS=2.464P AD=2.464P
+ PS=7.94U PD=7.94U
M$110 \$1768 \$1855 \$1767 \$1946 pfet_05v0 L=0.8U W=3.2U AS=2.464P AD=2.464P
+ PS=7.94U PD=7.94U
M$111 \$1770 \$1856 \$1769 \$1949 pfet_05v0 L=0.8U W=3.2U AS=2.464P AD=2.464P
+ PS=7.94U PD=7.94U
M$112 \$1772 \$1857 \$1771 \$1952 pfet_05v0 L=0.8U W=3.2U AS=2.464P AD=2.464P
+ PS=7.94U PD=7.94U
M$113 \$1774 \$1858 \$1773 \$1919 pfet_05v0 L=0.8U W=3.2U AS=2.464P AD=2.464P
+ PS=7.94U PD=7.94U
M$114 \$1776 \$1859 \$1775 \$1912 pfet_05v0 L=0.8U W=3.2U AS=2.464P AD=2.464P
+ PS=7.94U PD=7.94U
M$115 \$1778 \$1860 \$1777 \$1902 pfet_05v0 L=0.8U W=3.2U AS=2.464P AD=2.464P
+ PS=7.94U PD=7.94U
M$116 \$1780 \$1861 \$1779 \$1893 pfet_05v0 L=0.8U W=3.2U AS=2.464P AD=2.464P
+ PS=7.94U PD=7.94U
M$117 \$1782 \$1862 \$1781 \$1884 pfet_05v0 L=0.8U W=3.2U AS=2.464P AD=2.464P
+ PS=7.94U PD=7.94U
M$118 \$1784 \$1863 \$1783 \$1883 pfet_05v0 L=0.8U W=3.2U AS=2.464P AD=2.464P
+ PS=7.94U PD=7.94U
M$119 \$2027 \$2068 \$2026 \$2104 pfet_05v0 L=3.2U W=3.2U AS=2.464P AD=2.464P
+ PS=7.94U PD=7.94U
M$120 \$2029 \$2069 \$2028 \$2108 pfet_05v0 L=3.2U W=3.2U AS=2.464P AD=2.464P
+ PS=7.94U PD=7.94U
M$121 \$1954 \$2070 \$1953 \$2109 pfet_05v0 L=0.8U W=3.2U AS=2.464P AD=2.464P
+ PS=7.94U PD=7.94U
M$122 \$1956 \$2071 \$1955 \$2115 pfet_05v0 L=0.8U W=3.2U AS=2.464P AD=2.464P
+ PS=7.94U PD=7.94U
M$123 \$1958 \$2072 \$1957 \$2120 pfet_05v0 L=0.8U W=3.2U AS=2.464P AD=2.464P
+ PS=7.94U PD=7.94U
M$124 \$1960 \$2073 \$1959 \$2122 pfet_05v0 L=0.8U W=3.2U AS=2.464P AD=2.464P
+ PS=7.94U PD=7.94U
M$125 \$1962 \$2074 \$1961 \$2127 pfet_05v0 L=0.8U W=3.2U AS=2.464P AD=2.464P
+ PS=7.94U PD=7.94U
M$126 \$1964 \$2075 \$1963 \$2132 pfet_05v0 L=0.8U W=3.2U AS=2.464P AD=2.464P
+ PS=7.94U PD=7.94U
M$127 \$1966 \$2076 \$1965 \$2134 pfet_05v0 L=0.8U W=3.2U AS=2.464P AD=2.464P
+ PS=7.94U PD=7.94U
M$128 \$1968 \$2077 \$1967 \$2138 pfet_05v0 L=0.8U W=3.2U AS=2.464P AD=2.464P
+ PS=7.94U PD=7.94U
M$129 \$1970 \$2078 \$1969 \$2141 pfet_05v0 L=0.8U W=3.2U AS=2.464P AD=2.464P
+ PS=7.94U PD=7.94U
M$130 \$1972 \$2079 \$1971 \$2145 pfet_05v0 L=0.8U W=3.2U AS=2.464P AD=2.464P
+ PS=7.94U PD=7.94U
M$131 \$1974 \$2080 \$1973 \$2150 pfet_05v0 L=0.8U W=3.2U AS=2.464P AD=2.464P
+ PS=7.94U PD=7.94U
M$132 \$1976 \$2081 \$1975 \$2153 pfet_05v0 L=0.8U W=3.2U AS=2.464P AD=2.464P
+ PS=7.94U PD=7.94U
M$133 \$1978 \$2082 \$1977 \$2157 pfet_05v0 L=0.8U W=3.2U AS=2.464P AD=2.464P
+ PS=7.94U PD=7.94U
M$134 \$1980 \$2083 \$1979 \$2159 pfet_05v0 L=0.8U W=3.2U AS=2.464P AD=2.464P
+ PS=7.94U PD=7.94U
M$135 \$1982 \$2084 \$1981 \$2163 pfet_05v0 L=0.8U W=3.2U AS=2.464P AD=2.464P
+ PS=7.94U PD=7.94U
M$136 \$1984 \$2085 \$1983 \$2166 pfet_05v0 L=0.8U W=3.2U AS=2.464P AD=2.464P
+ PS=7.94U PD=7.94U
M$137 \$1986 \$2086 \$1985 \$2168 pfet_05v0 L=0.8U W=3.2U AS=2.464P AD=2.464P
+ PS=7.94U PD=7.94U
M$138 \$1988 \$2087 \$1987 \$2172 pfet_05v0 L=0.8U W=3.2U AS=2.464P AD=2.464P
+ PS=7.94U PD=7.94U
M$139 \$1990 \$2088 \$1989 \$2175 pfet_05v0 L=0.8U W=3.2U AS=2.464P AD=2.464P
+ PS=7.94U PD=7.94U
M$140 \$1992 \$2089 \$1991 \$2148 pfet_05v0 L=0.8U W=3.2U AS=2.464P AD=2.464P
+ PS=7.94U PD=7.94U
M$141 \$1994 \$2090 \$1993 \$2142 pfet_05v0 L=0.8U W=3.2U AS=2.464P AD=2.464P
+ PS=7.94U PD=7.94U
M$142 \$1996 \$2091 \$1995 \$2136 pfet_05v0 L=0.8U W=3.2U AS=2.464P AD=2.464P
+ PS=7.94U PD=7.94U
M$143 \$1998 \$2092 \$1997 \$2129 pfet_05v0 L=0.8U W=3.2U AS=2.464P AD=2.464P
+ PS=7.94U PD=7.94U
M$144 \$2000 \$2093 \$1999 \$2123 pfet_05v0 L=0.8U W=3.2U AS=2.464P AD=2.464P
+ PS=7.94U PD=7.94U
M$145 \$2002 \$2094 \$2001 \$2117 pfet_05v0 L=0.8U W=3.2U AS=2.464P AD=2.464P
+ PS=7.94U PD=7.94U
M$146 \$2004 \$2095 \$2003 \$2112 pfet_05v0 L=0.8U W=3.2U AS=2.464P AD=2.464P
+ PS=7.94U PD=7.94U
M$147 \$2289 \$2395 \$2288 \$2465 pfet_05v0 L=3.2U W=3.2U AS=2.464P AD=2.464P
+ PS=7.94U PD=7.94U
M$148 \$2291 \$2396 \$2290 \$2467 pfet_05v0 L=3.2U W=3.2U AS=2.464P AD=2.464P
+ PS=7.94U PD=7.94U
M$149 \$2178 \$2292 \$2177 \$2329 pfet_05v0 L=0.8U W=3.2U AS=2.464P AD=2.464P
+ PS=7.94U PD=7.94U
M$150 \$2180 \$2293 \$2179 \$2332 pfet_05v0 L=0.8U W=3.2U AS=2.464P AD=2.464P
+ PS=7.94U PD=7.94U
M$151 \$2182 \$2294 \$2181 \$2334 pfet_05v0 L=0.8U W=3.2U AS=2.464P AD=2.464P
+ PS=7.94U PD=7.94U
M$152 \$2184 \$2295 \$2183 \$2335 pfet_05v0 L=0.8U W=3.2U AS=2.464P AD=2.464P
+ PS=7.94U PD=7.94U
M$153 \$2186 \$2296 \$2185 \$2337 pfet_05v0 L=0.8U W=3.2U AS=2.464P AD=2.464P
+ PS=7.94U PD=7.94U
M$154 \$2188 \$2297 \$2187 \$2340 pfet_05v0 L=0.8U W=3.2U AS=2.464P AD=2.464P
+ PS=7.94U PD=7.94U
M$155 \$2190 \$2298 \$2189 \$2342 pfet_05v0 L=0.8U W=3.2U AS=2.464P AD=2.464P
+ PS=7.94U PD=7.94U
M$156 \$2192 \$2299 \$2191 \$2343 pfet_05v0 L=0.8U W=3.2U AS=2.464P AD=2.464P
+ PS=7.94U PD=7.94U
M$157 \$2194 \$2300 \$2193 \$2346 pfet_05v0 L=0.8U W=3.2U AS=2.464P AD=2.464P
+ PS=7.94U PD=7.94U
M$158 \$2196 \$2301 \$2195 \$2347 pfet_05v0 L=0.8U W=3.2U AS=2.464P AD=2.464P
+ PS=7.94U PD=7.94U
M$159 \$2198 \$2302 \$2197 \$2352 pfet_05v0 L=0.8U W=3.2U AS=2.464P AD=2.464P
+ PS=7.94U PD=7.94U
M$160 \$2200 \$2303 \$2199 \$2355 pfet_05v0 L=0.8U W=3.2U AS=2.464P AD=2.464P
+ PS=7.94U PD=7.94U
M$161 \$2202 \$2304 \$2201 \$2361 pfet_05v0 L=0.8U W=3.2U AS=2.464P AD=2.464P
+ PS=7.94U PD=7.94U
M$162 \$2204 \$2305 \$2203 \$2366 pfet_05v0 L=0.8U W=3.2U AS=2.464P AD=2.464P
+ PS=7.94U PD=7.94U
M$163 \$2206 \$2306 \$2205 \$2370 pfet_05v0 L=0.8U W=3.2U AS=2.464P AD=2.464P
+ PS=7.94U PD=7.94U
M$164 \$2208 \$2307 \$2207 \$2372 pfet_05v0 L=0.8U W=3.2U AS=2.464P AD=2.464P
+ PS=7.94U PD=7.94U
M$165 \$2210 \$2308 \$2209 \$2379 pfet_05v0 L=0.8U W=3.2U AS=2.464P AD=2.464P
+ PS=7.94U PD=7.94U
M$166 \$2212 \$2309 \$2211 \$2383 pfet_05v0 L=0.8U W=3.2U AS=2.464P AD=2.464P
+ PS=7.94U PD=7.94U
M$167 \$2214 \$2310 \$2213 \$2387 pfet_05v0 L=0.8U W=3.2U AS=2.464P AD=2.464P
+ PS=7.94U PD=7.94U
M$168 \$2216 \$2311 \$2215 \$2390 pfet_05v0 L=0.8U W=3.2U AS=2.464P AD=2.464P
+ PS=7.94U PD=7.94U
M$169 \$2218 \$2312 \$2217 \$2392 pfet_05v0 L=0.8U W=3.2U AS=2.464P AD=2.464P
+ PS=7.94U PD=7.94U
M$170 \$2220 \$2313 \$2219 \$2384 pfet_05v0 L=0.8U W=3.2U AS=2.464P AD=2.464P
+ PS=7.94U PD=7.94U
M$171 \$2222 \$2314 \$2221 \$2375 pfet_05v0 L=0.8U W=3.2U AS=2.464P AD=2.464P
+ PS=7.94U PD=7.94U
M$172 \$2224 \$2315 \$2223 \$2363 pfet_05v0 L=0.8U W=3.2U AS=2.464P AD=2.464P
+ PS=7.94U PD=7.94U
M$173 \$2226 \$2316 \$2225 \$2354 pfet_05v0 L=0.8U W=3.2U AS=2.464P AD=2.464P
+ PS=7.94U PD=7.94U
M$174 \$2228 \$2317 \$2227 \$2328 pfet_05v0 L=0.8U W=3.2U AS=2.464P AD=2.464P
+ PS=7.94U PD=7.94U
M$175 \$2451 \$2626 \$2450 \$2663 pfet_05v0 L=0.5U W=4U AS=3.08P AD=3.08P
+ PS=9.54U PD=9.54U
M$176 \$2453 \$2627 \$2452 \$2665 pfet_05v0 L=0.5U W=4U AS=3.08P AD=3.08P
+ PS=9.54U PD=9.54U
M$177 \$2455 \$2628 \$2454 \$2666 pfet_05v0 L=0.5U W=4U AS=3.08P AD=3.08P
+ PS=9.54U PD=9.54U
M$178 \$2457 \$2629 \$2456 \$2668 pfet_05v0 L=0.5U W=4U AS=3.08P AD=3.08P
+ PS=9.54U PD=9.54U
M$179 \$2398 \$2490 \$2397 \$2529 pfet_05v0 L=0.8U W=3.2U AS=2.464P AD=2.464P
+ PS=7.94U PD=7.94U
M$180 \$2400 \$2491 \$2399 \$2533 pfet_05v0 L=0.8U W=3.2U AS=2.464P AD=2.464P
+ PS=7.94U PD=7.94U
M$181 \$2402 \$2492 \$2401 \$2536 pfet_05v0 L=0.8U W=3.2U AS=2.464P AD=2.464P
+ PS=7.94U PD=7.94U
M$182 \$2404 \$2493 \$2403 \$2538 pfet_05v0 L=0.8U W=3.2U AS=2.464P AD=2.464P
+ PS=7.94U PD=7.94U
M$183 \$2406 \$2494 \$2405 \$2542 pfet_05v0 L=0.8U W=3.2U AS=2.464P AD=2.464P
+ PS=7.94U PD=7.94U
M$184 \$2408 \$2495 \$2407 \$2545 pfet_05v0 L=0.8U W=3.2U AS=2.464P AD=2.464P
+ PS=7.94U PD=7.94U
M$185 \$2410 \$2496 \$2409 \$2548 pfet_05v0 L=0.8U W=3.2U AS=2.464P AD=2.464P
+ PS=7.94U PD=7.94U
M$186 \$2412 \$2497 \$2411 \$2551 pfet_05v0 L=0.8U W=3.2U AS=2.464P AD=2.464P
+ PS=7.94U PD=7.94U
M$187 \$2414 \$2498 \$2413 \$2553 pfet_05v0 L=0.8U W=3.2U AS=2.464P AD=2.464P
+ PS=7.94U PD=7.94U
M$188 \$2416 \$2499 \$2415 \$2557 pfet_05v0 L=0.8U W=3.2U AS=2.464P AD=2.464P
+ PS=7.94U PD=7.94U
M$189 \$2418 \$2500 \$2417 \$2559 pfet_05v0 L=0.8U W=3.2U AS=2.464P AD=2.464P
+ PS=7.94U PD=7.94U
M$190 \$2420 \$2501 \$2419 \$2526 pfet_05v0 L=0.8U W=3.2U AS=2.464P AD=2.464P
+ PS=7.94U PD=7.94U
M$191 \$2422 \$2502 \$2421 \$2522 pfet_05v0 L=0.8U W=3.2U AS=2.464P AD=2.464P
+ PS=7.94U PD=7.94U
M$192 \$2424 \$2503 \$2423 \$2520 pfet_05v0 L=0.8U W=3.2U AS=2.464P AD=2.464P
+ PS=7.94U PD=7.94U
M$193 \$2426 \$2504 \$2425 \$2516 pfet_05v0 L=0.8U W=3.2U AS=2.464P AD=2.464P
+ PS=7.94U PD=7.94U
M$194 \$2428 \$2505 \$2427 \$2515 pfet_05v0 L=0.8U W=3.2U AS=2.464P AD=2.464P
+ PS=7.94U PD=7.94U
M$195 \$2562 \$2691 \$2561 \$2725 pfet_05v0 L=3.2U W=3.2U AS=2.464P AD=2.464P
+ PS=7.94U PD=7.94U
M$196 \$2564 \$2692 \$2563 \$2728 pfet_05v0 L=3.2U W=3.2U AS=2.464P AD=2.464P
+ PS=7.94U PD=7.94U
M$197 \$2566 \$2693 \$2565 \$2731 pfet_05v0 L=0.8U W=3.2U AS=2.464P AD=2.464P
+ PS=7.94U PD=7.94U
M$198 \$2568 \$2694 \$2567 \$2734 pfet_05v0 L=0.8U W=3.2U AS=2.464P AD=2.464P
+ PS=7.94U PD=7.94U
M$199 \$2570 \$2695 \$2569 \$2736 pfet_05v0 L=0.8U W=3.2U AS=2.464P AD=2.464P
+ PS=7.94U PD=7.94U
M$200 \$2572 \$2696 \$2571 \$2739 pfet_05v0 L=0.8U W=3.2U AS=2.464P AD=2.464P
+ PS=7.94U PD=7.94U
M$201 \$2574 \$2697 \$2573 \$2742 pfet_05v0 L=0.8U W=3.2U AS=2.464P AD=2.464P
+ PS=7.94U PD=7.94U
M$202 \$2576 \$2698 \$2575 \$2746 pfet_05v0 L=0.8U W=3.2U AS=2.464P AD=2.464P
+ PS=7.94U PD=7.94U
M$203 \$2578 \$2699 \$2577 \$2749 pfet_05v0 L=0.8U W=3.2U AS=2.464P AD=2.464P
+ PS=7.94U PD=7.94U
M$204 \$2580 \$2700 \$2579 \$2752 pfet_05v0 L=0.8U W=3.2U AS=2.464P AD=2.464P
+ PS=7.94U PD=7.94U
M$205 \$2582 \$2701 \$2581 \$2754 pfet_05v0 L=0.8U W=3.2U AS=2.464P AD=2.464P
+ PS=7.94U PD=7.94U
M$206 \$2584 \$2702 \$2583 \$2758 pfet_05v0 L=0.8U W=3.2U AS=2.464P AD=2.464P
+ PS=7.94U PD=7.94U
M$207 \$2586 \$2703 \$2585 \$2760 pfet_05v0 L=0.8U W=3.2U AS=2.464P AD=2.464P
+ PS=7.94U PD=7.94U
M$208 \$2588 \$2704 \$2587 \$2764 pfet_05v0 L=0.8U W=3.2U AS=2.464P AD=2.464P
+ PS=7.94U PD=7.94U
M$209 \$2590 \$2705 \$2589 \$2767 pfet_05v0 L=0.8U W=3.2U AS=2.464P AD=2.464P
+ PS=7.94U PD=7.94U
M$210 \$2592 \$2706 \$2591 \$2769 pfet_05v0 L=0.8U W=3.2U AS=2.464P AD=2.464P
+ PS=7.94U PD=7.94U
M$211 \$2594 \$2707 \$2593 \$2773 pfet_05v0 L=0.8U W=3.2U AS=2.464P AD=2.464P
+ PS=7.94U PD=7.94U
M$212 \$2596 \$2708 \$2595 \$2775 pfet_05v0 L=0.8U W=3.2U AS=2.464P AD=2.464P
+ PS=7.94U PD=7.94U
M$213 \$2598 \$2709 \$2597 \$2779 pfet_05v0 L=0.8U W=3.2U AS=2.464P AD=2.464P
+ PS=7.94U PD=7.94U
M$214 \$2600 \$2710 \$2599 \$2781 pfet_05v0 L=0.8U W=3.2U AS=2.464P AD=2.464P
+ PS=7.94U PD=7.94U
M$215 \$2795 \$2950 \$2794 \$3006 pfet_05v0 L=0.5U W=4U AS=3.08P AD=3.08P
+ PS=9.54U PD=9.54U
M$216 \$2797 \$2951 \$2796 \$3009 pfet_05v0 L=0.5U W=4U AS=3.08P AD=3.08P
+ PS=9.54U PD=9.54U
M$217 \$2799 \$2952 \$2798 \$3011 pfet_05v0 L=0.5U W=4U AS=3.08P AD=3.08P
+ PS=9.54U PD=9.54U
M$218 \$2801 \$2953 \$2800 \$3012 pfet_05v0 L=0.5U W=4U AS=3.08P AD=3.08P
+ PS=9.54U PD=9.54U
M$219 \$2858 \$2954 \$2857 \$3018 pfet_05v0 L=0.8U W=3.2U AS=2.464P AD=2.464P
+ PS=7.94U PD=7.94U
M$220 \$2860 \$2955 \$2859 \$3021 pfet_05v0 L=0.8U W=3.2U AS=2.464P AD=2.464P
+ PS=7.94U PD=7.94U
M$221 \$2862 \$2956 \$2861 \$3025 pfet_05v0 L=0.8U W=3.2U AS=2.464P AD=2.464P
+ PS=7.94U PD=7.94U
M$222 \$2864 \$2957 \$2863 \$3027 pfet_05v0 L=0.8U W=3.2U AS=2.464P AD=2.464P
+ PS=7.94U PD=7.94U
M$223 \$2866 \$2958 \$2865 \$3030 pfet_05v0 L=0.8U W=3.2U AS=2.464P AD=2.464P
+ PS=7.94U PD=7.94U
M$224 \$2868 \$2959 \$2867 \$3033 pfet_05v0 L=0.8U W=3.2U AS=2.464P AD=2.464P
+ PS=7.94U PD=7.94U
M$225 \$2870 \$2960 \$2869 \$3036 pfet_05v0 L=0.8U W=3.2U AS=2.464P AD=2.464P
+ PS=7.94U PD=7.94U
M$226 \$2872 \$2961 \$2871 \$3039 pfet_05v0 L=0.8U W=3.2U AS=2.464P AD=2.464P
+ PS=7.94U PD=7.94U
M$227 \$2874 \$2962 \$2873 \$3042 pfet_05v0 L=0.8U W=3.2U AS=2.464P AD=2.464P
+ PS=7.94U PD=7.94U
M$228 \$2876 \$2963 \$2875 \$3045 pfet_05v0 L=0.8U W=3.2U AS=2.464P AD=2.464P
+ PS=7.94U PD=7.94U
M$229 \$2878 \$2964 \$2877 \$3048 pfet_05v0 L=0.8U W=3.2U AS=2.464P AD=2.464P
+ PS=7.94U PD=7.94U
M$230 \$2880 \$2965 \$2879 \$3015 pfet_05v0 L=0.8U W=3.2U AS=2.464P AD=2.464P
+ PS=7.94U PD=7.94U
M$231 \$2882 \$2966 \$2881 \$3003 pfet_05v0 L=0.8U W=3.2U AS=2.464P AD=2.464P
+ PS=7.94U PD=7.94U
M$232 \$2884 \$2967 \$2883 \$3000 pfet_05v0 L=0.8U W=3.2U AS=2.464P AD=2.464P
+ PS=7.94U PD=7.94U
M$233 \$2886 \$2968 \$2885 \$2997 pfet_05v0 L=0.8U W=3.2U AS=2.464P AD=2.464P
+ PS=7.94U PD=7.94U
M$234 \$2888 \$2969 \$2887 \$2995 pfet_05v0 L=0.8U W=3.2U AS=2.464P AD=2.464P
+ PS=7.94U PD=7.94U
M$235 \$2890 \$2970 \$2889 \$2992 pfet_05v0 L=0.8U W=3.2U AS=2.464P AD=2.464P
+ PS=7.94U PD=7.94U
M$236 \$2892 \$2971 \$2891 \$2989 pfet_05v0 L=0.8U W=3.2U AS=2.464P AD=2.464P
+ PS=7.94U PD=7.94U
M$237 \$2631 \$2802 \$2630 \$2856 pfet_05v0 L=0.8U W=3.2U AS=2.464P AD=2.464P
+ PS=7.94U PD=7.94U
M$238 \$2633 \$2803 \$2632 \$2853 pfet_05v0 L=0.8U W=3.2U AS=2.464P AD=2.464P
+ PS=7.94U PD=7.94U
M$239 \$2635 \$2804 \$2634 \$2852 pfet_05v0 L=0.8U W=3.2U AS=2.464P AD=2.464P
+ PS=7.94U PD=7.94U
M$240 \$2637 \$2805 \$2636 \$2850 pfet_05v0 L=0.8U W=3.2U AS=2.464P AD=2.464P
+ PS=7.94U PD=7.94U
M$241 \$2639 \$2806 \$2638 \$2847 pfet_05v0 L=0.8U W=3.2U AS=2.464P AD=2.464P
+ PS=7.94U PD=7.94U
M$242 \$2641 \$2807 \$2640 \$2845 pfet_05v0 L=0.8U W=3.2U AS=2.464P AD=2.464P
+ PS=7.94U PD=7.94U
M$243 \$2643 \$2808 \$2642 \$2844 pfet_05v0 L=0.8U W=3.2U AS=2.464P AD=2.464P
+ PS=7.94U PD=7.94U
M$244 \$2645 \$2809 \$2644 \$2841 pfet_05v0 L=0.8U W=3.2U AS=2.464P AD=2.464P
+ PS=7.94U PD=7.94U
M$245 \$2647 \$2810 \$2646 \$2839 pfet_05v0 L=0.8U W=3.2U AS=2.464P AD=2.464P
+ PS=7.94U PD=7.94U
M$246 \$2649 \$2811 \$2648 \$2837 pfet_05v0 L=0.8U W=3.2U AS=2.464P AD=2.464P
+ PS=7.94U PD=7.94U
M$247 \$2651 \$2812 \$2650 \$2836 pfet_05v0 L=0.8U W=3.2U AS=2.464P AD=2.464P
+ PS=7.94U PD=7.94U
M$248 \$2653 \$2813 \$2652 \$2834 pfet_05v0 L=0.8U W=3.2U AS=2.464P AD=2.464P
+ PS=7.94U PD=7.94U
M$249 \$2655 \$2814 \$2654 \$2831 pfet_05v0 L=0.8U W=3.2U AS=2.464P AD=2.464P
+ PS=7.94U PD=7.94U
M$250 \$2657 \$2815 \$2656 \$2830 pfet_05v0 L=0.8U W=3.2U AS=2.464P AD=2.464P
+ PS=7.94U PD=7.94U
M$251 \$2659 \$2816 \$2658 \$2827 pfet_05v0 L=0.8U W=3.2U AS=2.464P AD=2.464P
+ PS=7.94U PD=7.94U
M$252 \$2661 \$2817 \$2660 \$2825 pfet_05v0 L=0.8U W=3.2U AS=2.464P AD=2.464P
+ PS=7.94U PD=7.94U
M$253 \$2915 \$3050 \$2914 \$3060 pfet_05v0 L=3.2U W=3.2U AS=2.464P AD=2.464P
+ PS=7.94U PD=7.94U
M$254 \$2917 \$3051 \$2916 \$3062 pfet_05v0 L=3.2U W=3.2U AS=2.464P AD=2.464P
+ PS=7.94U PD=7.94U
M$255 \$3074 \$3130 \$3073 \$3260 pfet_05v0 L=0.8U W=3.2U AS=2.464P AD=2.464P
+ PS=7.94U PD=7.94U
M$256 \$3076 \$3131 \$3075 \$3257 pfet_05v0 L=0.8U W=3.2U AS=2.464P AD=2.464P
+ PS=7.94U PD=7.94U
M$257 \$3078 \$3132 \$3077 \$3256 pfet_05v0 L=0.8U W=3.2U AS=2.464P AD=2.464P
+ PS=7.94U PD=7.94U
M$258 \$3080 \$3133 \$3079 \$3254 pfet_05v0 L=0.8U W=3.2U AS=2.464P AD=2.464P
+ PS=7.94U PD=7.94U
M$259 \$3082 \$3134 \$3081 \$3251 pfet_05v0 L=0.8U W=3.2U AS=2.464P AD=2.464P
+ PS=7.94U PD=7.94U
M$260 \$3084 \$3135 \$3083 \$3249 pfet_05v0 L=0.8U W=3.2U AS=2.464P AD=2.464P
+ PS=7.94U PD=7.94U
M$261 \$3086 \$3136 \$3085 \$3248 pfet_05v0 L=0.8U W=3.2U AS=2.464P AD=2.464P
+ PS=7.94U PD=7.94U
M$262 \$3088 \$3137 \$3087 \$3245 pfet_05v0 L=0.8U W=3.2U AS=2.464P AD=2.464P
+ PS=7.94U PD=7.94U
M$263 \$3090 \$3138 \$3089 \$3243 pfet_05v0 L=0.8U W=3.2U AS=2.464P AD=2.464P
+ PS=7.94U PD=7.94U
M$264 \$3092 \$3139 \$3091 \$3242 pfet_05v0 L=0.8U W=3.2U AS=2.464P AD=2.464P
+ PS=7.94U PD=7.94U
M$265 \$3094 \$3140 \$3093 \$3240 pfet_05v0 L=0.8U W=3.2U AS=2.464P AD=2.464P
+ PS=7.94U PD=7.94U
M$266 \$3096 \$3141 \$3095 \$3238 pfet_05v0 L=0.8U W=3.2U AS=2.464P AD=2.464P
+ PS=7.94U PD=7.94U
M$267 \$3098 \$3142 \$3097 \$3235 pfet_05v0 L=0.8U W=3.2U AS=2.464P AD=2.464P
+ PS=7.94U PD=7.94U
M$268 \$3100 \$3143 \$3099 \$3233 pfet_05v0 L=0.8U W=3.2U AS=2.464P AD=2.464P
+ PS=7.94U PD=7.94U
M$269 \$3102 \$3144 \$3101 \$3232 pfet_05v0 L=0.8U W=3.2U AS=2.464P AD=2.464P
+ PS=7.94U PD=7.94U
M$270 \$3104 \$3145 \$3103 \$3230 pfet_05v0 L=0.8U W=3.2U AS=2.464P AD=2.464P
+ PS=7.94U PD=7.94U
M$271 \$3106 \$3146 \$3105 \$3227 pfet_05v0 L=0.8U W=3.2U AS=2.464P AD=2.464P
+ PS=7.94U PD=7.94U
M$272 \$3108 \$3147 \$3107 \$3226 pfet_05v0 L=0.8U W=3.2U AS=2.464P AD=2.464P
+ PS=7.94U PD=7.94U
M$273 \$2973 \$3148 \$2972 \$3193 pfet_05v0 L=0.8U W=3.2U AS=2.464P AD=2.464P
+ PS=7.94U PD=7.94U
M$274 \$2975 \$3149 \$2974 \$3187 pfet_05v0 L=0.8U W=3.2U AS=2.464P AD=2.464P
+ PS=7.94U PD=7.94U
M$275 \$2977 \$3150 \$2976 \$3182 pfet_05v0 L=0.8U W=3.2U AS=2.464P AD=2.464P
+ PS=7.94U PD=7.94U
M$276 \$2979 \$3151 \$2978 \$3178 pfet_05v0 L=0.8U W=3.2U AS=2.464P AD=2.464P
+ PS=7.94U PD=7.94U
M$277 \$2981 \$3152 \$2980 \$3173 pfet_05v0 L=0.8U W=3.2U AS=2.464P AD=2.464P
+ PS=7.94U PD=7.94U
M$278 \$2983 \$3153 \$2982 \$3170 pfet_05v0 L=0.8U W=3.2U AS=2.464P AD=2.464P
+ PS=7.94U PD=7.94U
M$279 \$2985 \$3154 \$2984 \$3167 pfet_05v0 L=0.8U W=3.2U AS=2.464P AD=2.464P
+ PS=7.94U PD=7.94U
M$280 \$2987 \$3155 \$2986 \$3163 pfet_05v0 L=0.8U W=3.2U AS=2.464P AD=2.464P
+ PS=7.94U PD=7.94U
M$281 \$3066 \$3282 \$3065 \$3295 pfet_05v0 L=0.5U W=4U AS=3.08P AD=3.08P
+ PS=9.54U PD=9.54U
M$282 \$3068 \$3283 \$3067 \$3296 pfet_05v0 L=0.5U W=4U AS=3.08P AD=3.08P
+ PS=9.54U PD=9.54U
M$283 \$3070 \$3284 \$3069 \$3300 pfet_05v0 L=0.5U W=4U AS=3.08P AD=3.08P
+ PS=9.54U PD=9.54U
M$284 \$3072 \$3285 \$3071 \$3303 pfet_05v0 L=0.5U W=4U AS=3.08P AD=3.08P
+ PS=9.54U PD=9.54U
M$285 \$3206 \$3372 \$3205 \$3419 pfet_05v0 L=3.2U W=3.2U AS=2.464P AD=2.464P
+ PS=7.94U PD=7.94U
M$286 \$3208 \$3373 \$3207 \$3421 pfet_05v0 L=3.2U W=3.2U AS=2.464P AD=2.464P
+ PS=7.94U PD=7.94U
M$287 \$3306 \$3374 \$3305 \$3502 pfet_05v0 L=0.8U W=3.2U AS=2.464P AD=2.464P
+ PS=7.94U PD=7.94U
M$288 \$3308 \$3375 \$3307 \$3504 pfet_05v0 L=0.8U W=3.2U AS=2.464P AD=2.464P
+ PS=7.94U PD=7.94U
M$289 \$3310 \$3376 \$3309 \$3499 pfet_05v0 L=0.8U W=3.2U AS=2.464P AD=2.464P
+ PS=7.94U PD=7.94U
M$290 \$3312 \$3377 \$3311 \$3497 pfet_05v0 L=0.8U W=3.2U AS=2.464P AD=2.464P
+ PS=7.94U PD=7.94U
M$291 \$3314 \$3378 \$3313 \$3495 pfet_05v0 L=0.8U W=3.2U AS=2.464P AD=2.464P
+ PS=7.94U PD=7.94U
M$292 \$3316 \$3379 \$3315 \$3493 pfet_05v0 L=0.8U W=3.2U AS=2.464P AD=2.464P
+ PS=7.94U PD=7.94U
M$293 \$3318 \$3380 \$3317 \$3492 pfet_05v0 L=0.8U W=3.2U AS=2.464P AD=2.464P
+ PS=7.94U PD=7.94U
M$294 \$3320 \$3381 \$3319 \$3489 pfet_05v0 L=0.8U W=3.2U AS=2.464P AD=2.464P
+ PS=7.94U PD=7.94U
M$295 \$3322 \$3382 \$3321 \$3487 pfet_05v0 L=0.8U W=3.2U AS=2.464P AD=2.464P
+ PS=7.94U PD=7.94U
M$296 \$3324 \$3383 \$3323 \$3486 pfet_05v0 L=0.8U W=3.2U AS=2.464P AD=2.464P
+ PS=7.94U PD=7.94U
M$297 \$3326 \$3384 \$3325 \$3484 pfet_05v0 L=0.8U W=3.2U AS=2.464P AD=2.464P
+ PS=7.94U PD=7.94U
M$298 \$3328 \$3385 \$3327 \$3481 pfet_05v0 L=0.8U W=3.2U AS=2.464P AD=2.464P
+ PS=7.94U PD=7.94U
M$299 \$3330 \$3386 \$3329 \$3480 pfet_05v0 L=0.8U W=3.2U AS=2.464P AD=2.464P
+ PS=7.94U PD=7.94U
M$300 \$3332 \$3387 \$3331 \$3478 pfet_05v0 L=0.8U W=3.2U AS=2.464P AD=2.464P
+ PS=7.94U PD=7.94U
M$301 \$3334 \$3388 \$3333 \$3476 pfet_05v0 L=0.8U W=3.2U AS=2.464P AD=2.464P
+ PS=7.94U PD=7.94U
M$302 \$3336 \$3389 \$3335 \$3474 pfet_05v0 L=0.8U W=3.2U AS=2.464P AD=2.464P
+ PS=7.94U PD=7.94U
M$303 \$3338 \$3390 \$3337 \$3471 pfet_05v0 L=0.8U W=3.2U AS=2.464P AD=2.464P
+ PS=7.94U PD=7.94U
M$304 \$3340 \$3391 \$3339 \$3470 pfet_05v0 L=0.8U W=3.2U AS=2.464P AD=2.464P
+ PS=7.94U PD=7.94U
M$305 \$3210 \$3392 \$3209 \$3438 pfet_05v0 L=0.8U W=3.2U AS=2.464P AD=2.464P
+ PS=7.94U PD=7.94U
M$306 \$3212 \$3393 \$3211 \$3434 pfet_05v0 L=0.8U W=3.2U AS=2.464P AD=2.464P
+ PS=7.94U PD=7.94U
M$307 \$3214 \$3394 \$3213 \$3429 pfet_05v0 L=0.8U W=3.2U AS=2.464P AD=2.464P
+ PS=7.94U PD=7.94U
M$308 \$3216 \$3395 \$3215 \$3425 pfet_05v0 L=0.8U W=3.2U AS=2.464P AD=2.464P
+ PS=7.94U PD=7.94U
M$309 \$3218 \$3396 \$3217 \$3416 pfet_05v0 L=0.8U W=3.2U AS=2.464P AD=2.464P
+ PS=7.94U PD=7.94U
M$310 \$3220 \$3397 \$3219 \$3413 pfet_05v0 L=0.8U W=3.2U AS=2.464P AD=2.464P
+ PS=7.94U PD=7.94U